LAMMPS (29 Oct 2020)
# MD simulation for NNP water

###############################################################################
# INITIALIZATION
###############################################################################
units metal
boundary p p p
atom_style atomic
timestep 0.0005
thermo 1

##############################################################################
# SYSTEM DEFINTION
##############################################################################
read_data "initial_configuration.data"
Reading data file ...
  triclinic box = (0.8942739 0.8942739 0.8942739) to (16.689126 16.689126 16.689126) with tilt (0.0000000 0.0000000 0.0000000)
  reading atoms ...
  384 atoms
  reading velocities ...
  384 velocities

###############################################################################
# SIMULATION SETTINGS / NNP POTENTIAL
###############################################################################
mass 1 1.00794
mass 2 15.9994

pair_style nnp dir nnp-data showew no showewsum 10 resetew yes maxew 100 cflength 1.8897261328 cfenergy 0.0367493254 emap "1:H,2:O"
pair_coeff * * 6.36

# INTEGRATOR
fix INT all nve

###############################################################################
# RUN
###############################################################################
dump 1 all atom 5 traj.dump
run 10000

*******************************************************************************

WELCOME TO n²p², A SOFTWARE PACKAGE FOR NEURAL NETWORK POTENTIALS!

n²p² version  (from git): v2.2.0-1-g6be249e1
             (version.h): v2.2.0
Git branch              : master
Git revision            : 6be249e19d1cbabf487753a56a86f9b6395c0bdb
Compile date/time       : Jun 27 2022 13:10:53

Features/Flags:
Symmetry function groups     : enabled
Symmetry function cache      : enabled
Timing function available    : available
Asymmetric polynomial SFs    : available
SF low neighbor number check : enabled
SF derivative memory layout  : reduced
MPI explicitly disabled      : no

Please cite the following papers when publishing results obtained with n²p²:
 * General citation for n²p² and the LAMMPS interface:

 Singraber, A.; Behler, J.; Dellago, C.
 Library-Based LAMMPS Implementation of High-Dimensional
 Neural Network Potentials.
 J. Chem. Theory Comput. 2019 15 (3), 1827–1840.
 https://doi.org/10.1021/acs.jctc.8b00770
 * Additionally, if you use the NNP training features of n²p²:

 Singraber, A.; Morawietz, T.; Behler, J.; Dellago, C.
 Parallel Multistream Training of High-Dimensional Neural
 Network Potentials.
 J. Chem. Theory Comput. 2019, 15 (5), 3075–3092.
 https://doi.org/10.1021/acs.jctc.8b01092
 * Additionally, if polynomial symmetry functions are used:

 Bircher, M. P.; Singraber, A.; Dellago, C.
 Improved Description of Atomic Environments Using Low-Cost
 Polynomial Functions with Compact Support.
 arXiv:2010.14414 [cond-mat, physics:physics] 2020.
 https://arxiv.org/abs/2010.14414
*******************************************************************************

*** SETUP: SETTINGS FILE ******************************************************

Settings file name: nnp-data/input.nn
Read 175 lines.
Found 102 lines with keywords.
This settings file defines a short-range only NNP.
*******************************************************************************

*** SETUP: NORMALIZATION ******************************************************

Data set normalization is used.
Mean energy per atom     :  -2.5521343547039809E+01
Conversion factor energy :   2.4265748255366972E+02
Conversion factor length :   5.8038448995319847E+00
*******************************************************************************

*** SETUP: ELEMENT MAP ********************************************************

Number of element strings found: 2
Element  0:  H (  1)
Element  1:  O (  8)
*******************************************************************************

*** SETUP: ELEMENTS ***********************************************************

Number of elements is consistent: 2
Atomic energy offsets per element:
Element  0:   0.00000000E+00
Element  1:   0.00000000E+00
Energy offsets are automatically subtracted from reference energies.
*******************************************************************************

*** SETUP: CUTOFF FUNCTIONS ***************************************************

Parameter alpha for inner cutoff: 0.000000
Inner cutoff = Symmetry function cutoff * alpha
Equal cutoff function type for all symmetry functions:
CutoffFunction::CT_TANHU (2)
f(r) = tanh^3(1 - r/rc)
*******************************************************************************

*** SETUP: SYMMETRY FUNCTIONS *************************************************

Abbreviations:
ind .... Symmetry function index.
ec ..... Central atom element.
tp ..... Symmetry function type.
sbtp ... Symmetry function subtype (e.g. cutoff type).
e1 ..... Neighbor 1 element.
e2 ..... Neighbor 2 element.
eta .... Gaussian width eta.
rs/rl... Shift distance of Gaussian or left cutoff radius for polynomial.
angl.... Left cutoff angle for polynomial.
angr.... Right cutoff angle for polynomial.
la ..... Angle prefactor lambda.
zeta ... Angle term exponent zeta.
rc ..... Cutoff radius / right cutoff radius for polynomial.
a ...... Free parameter alpha (e.g. cutoff alpha).
ln ..... Line number in settings file.

Short range atomic symmetry functions element  H :
 ind ec tp sbtp e1 e2       eta      rs/rl         rc   angl   angr la zeta    a    ln
   1  H  2  ct2  H    1.000E-03  0.000E+00  1.200E+01                       0.00   106
   2  H  2  ct2  O    1.000E-03  0.000E+00  1.200E+01                       0.00   116
   3  H  2  ct2  H    1.000E-02  0.000E+00  1.200E+01                       0.00   107
   4  H  2  ct2  O    1.000E-02  0.000E+00  1.200E+01                       0.00   117
   5  H  2  ct2  H    3.000E-02  0.000E+00  1.200E+01                       0.00   108
   6  H  2  ct2  O    3.000E-02  0.000E+00  1.200E+01                       0.00   118
   7  H  2  ct2  H    6.000E-02  0.000E+00  1.200E+01                       0.00   109
   8  H  2  ct2  O    6.000E-02  0.000E+00  1.200E+01                       0.00   119
   9  H  2  ct2  O    1.500E-01  9.000E-01  1.200E+01                       0.00   120
  10  H  2  ct2  H    1.500E-01  1.900E+00  1.200E+01                       0.00   110
  11  H  2  ct2  O    3.000E-01  9.000E-01  1.200E+01                       0.00   121
  12  H  2  ct2  H    3.000E-01  1.900E+00  1.200E+01                       0.00   111
  13  H  2  ct2  O    6.000E-01  9.000E-01  1.200E+01                       0.00   122
  14  H  2  ct2  H    6.000E-01  1.900E+00  1.200E+01                       0.00   112
  15  H  2  ct2  O    1.500E+00  9.000E-01  1.200E+01                       0.00   123
  16  H  2  ct2  H    1.500E+00  1.900E+00  1.200E+01                       0.00   113
  17  H  3  ct2  O  O 1.000E-03  0.000E+00  1.200E+01               -1  4.0 0.00   170
  18  H  3  ct2  O  O 1.000E-03  0.000E+00  1.200E+01                1  4.0 0.00   169
  19  H  3  ct2  H  O 1.000E-02  0.000E+00  1.200E+01               -1  4.0 0.00   160
  20  H  3  ct2  H  O 1.000E-02  0.000E+00  1.200E+01                1  4.0 0.00   158
  21  H  3  ct2  H  O 3.000E-02  0.000E+00  1.200E+01               -1  1.0 0.00   155
  22  H  3  ct2  O  O 3.000E-02  0.000E+00  1.200E+01               -1  1.0 0.00   168
  23  H  3  ct2  H  O 3.000E-02  0.000E+00  1.200E+01                1  1.0 0.00   153
  24  H  3  ct2  O  O 3.000E-02  0.000E+00  1.200E+01                1  1.0 0.00   167
  25  H  3  ct2  H  O 7.000E-02  0.000E+00  1.200E+01               -1  1.0 0.00   150
  26  H  3  ct2  H  O 7.000E-02  0.000E+00  1.200E+01                1  1.0 0.00   148
  27  H  3  ct2  H  O 2.000E-01  0.000E+00  1.200E+01                1  1.0 0.00   145
Short range atomic symmetry functions element  O :
 ind ec tp sbtp e1 e2       eta      rs/rl         rc   angl   angr la zeta    a    ln
   1  O  2  ct2  H    1.000E-03  0.000E+00  1.200E+01                       0.00   125
   2  O  2  ct2  O    1.000E-03  0.000E+00  1.200E+01                       0.00   135
   3  O  2  ct2  H    1.000E-02  0.000E+00  1.200E+01                       0.00   126
   4  O  2  ct2  O    1.000E-02  0.000E+00  1.200E+01                       0.00   136
   5  O  2  ct2  H    3.000E-02  0.000E+00  1.200E+01                       0.00   127
   6  O  2  ct2  O    3.000E-02  0.000E+00  1.200E+01                       0.00   137
   7  O  2  ct2  H    6.000E-02  0.000E+00  1.200E+01                       0.00   128
   8  O  2  ct2  O    6.000E-02  0.000E+00  1.200E+01                       0.00   138
   9  O  2  ct2  H    1.500E-01  9.000E-01  1.200E+01                       0.00   129
  10  O  2  ct2  O    1.500E-01  4.000E+00  1.200E+01                       0.00   139
  11  O  2  ct2  H    3.000E-01  9.000E-01  1.200E+01                       0.00   130
  12  O  2  ct2  O    3.000E-01  4.000E+00  1.200E+01                       0.00   140
  13  O  2  ct2  H    6.000E-01  9.000E-01  1.200E+01                       0.00   131
  14  O  2  ct2  O    6.000E-01  4.000E+00  1.200E+01                       0.00   141
  15  O  2  ct2  H    1.500E+00  9.000E-01  1.200E+01                       0.00   132
  16  O  2  ct2  O    1.500E+00  4.000E+00  1.200E+01                       0.00   142
  17  O  3  ct2  H  O 1.000E-03  0.000E+00  1.200E+01               -1  4.0 0.00   165
  18  O  3  ct2  O  O 1.000E-03  0.000E+00  1.200E+01               -1  4.0 0.00   175
  19  O  3  ct2  H  O 1.000E-03  0.000E+00  1.200E+01                1  4.0 0.00   164
  20  O  3  ct2  O  O 1.000E-03  0.000E+00  1.200E+01                1  4.0 0.00   174
  21  O  3  ct2  H  H 1.000E-02  0.000E+00  1.200E+01               -1  4.0 0.00   159
  22  O  3  ct2  H  H 1.000E-02  0.000E+00  1.200E+01                1  4.0 0.00   157
  23  O  3  ct2  H  H 3.000E-02  0.000E+00  1.200E+01               -1  1.0 0.00   154
  24  O  3  ct2  H  O 3.000E-02  0.000E+00  1.200E+01               -1  1.0 0.00   163
  25  O  3  ct2  O  O 3.000E-02  0.000E+00  1.200E+01               -1  1.0 0.00   173
  26  O  3  ct2  H  H 3.000E-02  0.000E+00  1.200E+01                1  1.0 0.00   152
  27  O  3  ct2  H  O 3.000E-02  0.000E+00  1.200E+01                1  1.0 0.00   162
  28  O  3  ct2  O  O 3.000E-02  0.000E+00  1.200E+01                1  1.0 0.00   172
  29  O  3  ct2  H  H 7.000E-02  0.000E+00  1.200E+01               -1  1.0 0.00   149
  30  O  3  ct2  H  H 7.000E-02  0.000E+00  1.200E+01                1  1.0 0.00   147
Minimum cutoff radius for element  H: 12.000000
Minimum cutoff radius for element  O: 12.000000
Maximum cutoff radius (global)      : 12.000000
*******************************************************************************

*** SETUP: SYMMETRY FUNCTION MEMORY *******************************************

Symmetry function derivatives memory table for element  H :
Relevant symmetry functions for neighbors with element:
-  H:   15 of   27 ( 55.6 %)
-  O:   19 of   27 ( 70.4 %)
Symmetry function derivatives memory table for element  O :
Relevant symmetry functions for neighbors with element:
-  H:   18 of   30 ( 60.0 %)
-  O:   16 of   30 ( 53.3 %)
*******************************************************************************

*** SETUP: SYMMETRY FUNCTION CACHE ********************************************

Element  H: in total 4 caches, used 17.00 times on average.
Element  O: in total 4 caches, used 17.00 times on average.
*******************************************************************************

*** SETUP: SYMMETRY FUNCTION GROUPS *******************************************

Abbreviations:
ind .... Symmetry function index.
ec ..... Central atom element.
tp ..... Symmetry function type.
sbtp ... Symmetry function subtype (e.g. cutoff type).
e1 ..... Neighbor 1 element.
e2 ..... Neighbor 2 element.
eta .... Gaussian width eta.
rs/rl... Shift distance of Gaussian or left cutoff radius for polynomial.
angl.... Left cutoff angle for polynomial.
angr.... Right cutoff angle for polynomial.
la ..... Angle prefactor lambda.
zeta ... Angle term exponent zeta.
rc ..... Cutoff radius / right cutoff radius for polynomial.
a ...... Free parameter alpha (e.g. cutoff alpha).
ln ..... Line number in settings file.
mi ..... Member index.
sfi .... Symmetry function index.
e ...... Recalculate exponential term.

Short range atomic symmetry function groups element  H :
 ind ec tp sbtp e1 e2       eta      rs/rl         rc   angl   angr la zeta    a    ln   mi  sfi e
   1  H  2  ct2  H            *          *  1.200E+01                       0.00     *    *    *
   -  -  -    -  -    1.000E-03  0.000E+00          -                          -   106    1    1
   -  -  -    -  -    1.000E-02  0.000E+00          -                          -   107    2    3
   -  -  -    -  -    3.000E-02  0.000E+00          -                          -   108    3    5
   -  -  -    -  -    6.000E-02  0.000E+00          -                          -   109    4    7
   -  -  -    -  -    1.500E-01  1.900E+00          -                          -   110    5   10
   -  -  -    -  -    3.000E-01  1.900E+00          -                          -   111    6   12
   -  -  -    -  -    6.000E-01  1.900E+00          -                          -   112    7   14
   -  -  -    -  -    1.500E+00  1.900E+00          -                          -   113    8   16
   2  H  2  ct2  O            *          *  1.200E+01                       0.00     *    *    *
   -  -  -    -  -    1.000E-03  0.000E+00          -                          -   116    1    2
   -  -  -    -  -    1.000E-02  0.000E+00          -                          -   117    2    4
   -  -  -    -  -    3.000E-02  0.000E+00          -                          -   118    3    6
   -  -  -    -  -    6.000E-02  0.000E+00          -                          -   119    4    8
   -  -  -    -  -    1.500E-01  9.000E-01          -                          -   120    5    9
   -  -  -    -  -    3.000E-01  9.000E-01          -                          -   121    6   11
   -  -  -    -  -    6.000E-01  9.000E-01          -                          -   122    7   13
   -  -  -    -  -    1.500E+00  9.000E-01          -                          -   123    8   15
   3  H  3  ct2  H  O         *          *  1.200E+01                *    * 0.00     *    *    * *
   -  -  -    -  -  - 1.000E-02  0.000E+00          -               -1  4.0    -   160    1   19 1
   -  -  -    -  -  - 1.000E-02  0.000E+00          -                1  4.0    -   158    2   20 0
   -  -  -    -  -  - 3.000E-02  0.000E+00          -               -1  1.0    -   155    3   21 1
   -  -  -    -  -  - 3.000E-02  0.000E+00          -                1  1.0    -   153    4   23 0
   -  -  -    -  -  - 7.000E-02  0.000E+00          -               -1  1.0    -   150    5   25 1
   -  -  -    -  -  - 7.000E-02  0.000E+00          -                1  1.0    -   148    6   26 0
   -  -  -    -  -  - 2.000E-01  0.000E+00          -                1  1.0    -   145    7   27 1
   4  H  3  ct2  O  O         *          *  1.200E+01                *    * 0.00     *    *    * *
   -  -  -    -  -  - 1.000E-03  0.000E+00          -               -1  4.0    -   170    1   17 1
   -  -  -    -  -  - 1.000E-03  0.000E+00          -                1  4.0    -   169    2   18 0
   -  -  -    -  -  - 3.000E-02  0.000E+00          -               -1  1.0    -   168    3   22 1
   -  -  -    -  -  - 3.000E-02  0.000E+00          -                1  1.0    -   167    4   24 0
Short range atomic symmetry function groups element  O :
 ind ec tp sbtp e1 e2       eta      rs/rl         rc   angl   angr la zeta    a    ln   mi  sfi e
   1  O  2  ct2  H            *          *  1.200E+01                       0.00     *    *    *
   -  -  -    -  -    1.000E-03  0.000E+00          -                          -   125    1    1
   -  -  -    -  -    1.000E-02  0.000E+00          -                          -   126    2    3
   -  -  -    -  -    3.000E-02  0.000E+00          -                          -   127    3    5
   -  -  -    -  -    6.000E-02  0.000E+00          -                          -   128    4    7
   -  -  -    -  -    1.500E-01  9.000E-01          -                          -   129    5    9
   -  -  -    -  -    3.000E-01  9.000E-01          -                          -   130    6   11
   -  -  -    -  -    6.000E-01  9.000E-01          -                          -   131    7   13
   -  -  -    -  -    1.500E+00  9.000E-01          -                          -   132    8   15
   2  O  2  ct2  O            *          *  1.200E+01                       0.00     *    *    *
   -  -  -    -  -    1.000E-03  0.000E+00          -                          -   135    1    2
   -  -  -    -  -    1.000E-02  0.000E+00          -                          -   136    2    4
   -  -  -    -  -    3.000E-02  0.000E+00          -                          -   137    3    6
   -  -  -    -  -    6.000E-02  0.000E+00          -                          -   138    4    8
   -  -  -    -  -    1.500E-01  4.000E+00          -                          -   139    5   10
   -  -  -    -  -    3.000E-01  4.000E+00          -                          -   140    6   12
   -  -  -    -  -    6.000E-01  4.000E+00          -                          -   141    7   14
   -  -  -    -  -    1.500E+00  4.000E+00          -                          -   142    8   16
   3  O  3  ct2  H  H         *          *  1.200E+01                *    * 0.00     *    *    * *
   -  -  -    -  -  - 1.000E-02  0.000E+00          -               -1  4.0    -   159    1   21 1
   -  -  -    -  -  - 1.000E-02  0.000E+00          -                1  4.0    -   157    2   22 0
   -  -  -    -  -  - 3.000E-02  0.000E+00          -               -1  1.0    -   154    3   23 1
   -  -  -    -  -  - 3.000E-02  0.000E+00          -                1  1.0    -   152    4   26 0
   -  -  -    -  -  - 7.000E-02  0.000E+00          -               -1  1.0    -   149    5   29 1
   -  -  -    -  -  - 7.000E-02  0.000E+00          -                1  1.0    -   147    6   30 0
   4  O  3  ct2  H  O         *          *  1.200E+01                *    * 0.00     *    *    * *
   -  -  -    -  -  - 1.000E-03  0.000E+00          -               -1  4.0    -   165    1   17 1
   -  -  -    -  -  - 1.000E-03  0.000E+00          -                1  4.0    -   164    2   19 0
   -  -  -    -  -  - 3.000E-02  0.000E+00          -               -1  1.0    -   163    3   24 1
   -  -  -    -  -  - 3.000E-02  0.000E+00          -                1  1.0    -   162    4   27 0
   5  O  3  ct2  O  O         *          *  1.200E+01                *    * 0.00     *    *    * *
   -  -  -    -  -  - 1.000E-03  0.000E+00          -               -1  4.0    -   175    1   18 1
   -  -  -    -  -  - 1.000E-03  0.000E+00          -                1  4.0    -   174    2   20 0
   -  -  -    -  -  - 3.000E-02  0.000E+00          -               -1  1.0    -   173    3   25 1
   -  -  -    -  -  - 3.000E-02  0.000E+00          -                1  1.0    -   172    4   28 0
*******************************************************************************

*** SETUP: NEURAL NETWORKS ****************************************************

Normalize neurons (all elements): 0
Atomic short range NN for element  H :
Number of weights    :   1325
Number of biases     :     51
Number of connections:   1376
Architecture       27   25   25    1
   1   G   t   t   l
   2   G   t   t
   3   G   t   t
   4   G   t   t
   5   G   t   t
   6   G   t   t
   7   G   t   t
   8   G   t   t
   9   G   t   t
  10   G   t   t
  11   G   t   t
  12   G   t   t
  13   G   t   t
  14   G   t   t
  15   G   t   t
  16   G   t   t
  17   G   t   t
  18   G   t   t
  19   G   t   t
  20   G   t   t
  21   G   t   t
  22   G   t   t
  23   G   t   t
  24   G   t   t
  25   G   t   t
  26   G
  27   G
Atomic short range NN for element  O :
Number of weights    :   1400
Number of biases     :     51
Number of connections:   1451
Architecture       30   25   25    1
   1   G   t   t   l
   2   G   t   t
   3   G   t   t
   4   G   t   t
   5   G   t   t
   6   G   t   t
   7   G   t   t
   8   G   t   t
   9   G   t   t
  10   G   t   t
  11   G   t   t
  12   G   t   t
  13   G   t   t
  14   G   t   t
  15   G   t   t
  16   G   t   t
  17   G   t   t
  18   G   t   t
  19   G   t   t
  20   G   t   t
  21   G   t   t
  22   G   t   t
  23   G   t   t
  24   G   t   t
  25   G   t   t
  26   G
  27   G
  28   G
  29   G
  30   G
*******************************************************************************

*** SETUP: SYMMETRY FUNCTION SCALING ******************************************

Equal scaling type for all symmetry functions:
Scaling type::ST_SCALECENTER (3)
Gs = Smin + (Smax - Smin) * (G - Gmean) / (Gmax - Gmin)
Smin = 0.000000
Smax = 1.000000
Symmetry function scaling statistics from file: nnp-data/scaling.data

Abbreviations:
ind ..... Symmetry function index.
min ..... Minimum symmetry function value.
max ..... Maximum symmetry function value.
mean .... Mean symmetry function value.
sigma ... Standard deviation of symmetry function values.
sf ...... Scaling factor for derivatives.
Smin .... Desired minimum scaled symmetry function value.
Smax .... Desired maximum scaled symmetry function value.
t ....... Scaling type.

Scaling data for symmetry functions element  H :
 ind       min       max      mean     sigma        sf  Smin  Smax t
Scaling data for symmetry functions element  O :
 ind       min       max      mean     sigma        sf  Smin  Smax t
*******************************************************************************

*** SETUP: SYMMETRY FUNCTION STATISTICS ***************************************

Equal symmetry function statistics for all elements.
Collect min/max/mean/sigma                        : 0
Collect extrapolation warnings                    : 1
Write extrapolation warnings immediately to stderr: 0
Halt on any extrapolation warning                 : 0
*******************************************************************************

*** SETUP: NEURAL NETWORK WEIGHTS *********************************************

Short  NN weight file name format: nnp-data/weights.%03d.data
Setting short  NN weights for element  H from file: nnp-data/weights.001.data
Setting short  NN weights for element  O from file: nnp-data/weights.008.data
*******************************************************************************

*** SETUP: LAMMPS INTERFACE ***************************************************

Individual extrapolation warnings will not be shown.
Extrapolation warning summary will be shown every 10 timesteps.
The simulation will be stopped when 100 extrapolation warnings are exceeded.
Extrapolation warning counter is reset every time step.
CAUTION: If the LAMMPS unit system differs from the one used
         during NN training, appropriate conversion factors
         must be provided (see keywords cflength and cfenergy).

Length unit conversion factor:   1.8897261327999999E+00
Energy unit conversion factor:   3.6749325399999998E-02

Checking consistency of cutoff radii (in LAMMPS units):
LAMMPS Cutoff (via pair_coeff)  :   6.360E+00
Maximum symmetry function cutoff:   6.350E+00
Cutoff radii are consistent.
Element mapping string from LAMMPS to n2p2: "1:H,2:O"

CAUTION: Please ensure that this mapping between LAMMPS
         atom types and NNP elements is consistent:

LAMMPS type  |  NNP element
          1 <->  H (  1)
          2 <->  O (  8)

NNP setup for LAMMPS completed.
*******************************************************************************
  update every 1 steps, delay 10 steps, check yes
### NNP EW SUMMARY ### TS:          0 EW          0 EWPERSTEP  0.000E+00
Step Temp E_pair E_mol TotEng Press
0     316.5674   -266690.79            0   -266675.12    1438.0285
### NNP EW SUMMARY ### TS:         10 EW          0 EWPERSTEP  0.000E+00
### NNP EW SUMMARY ### TS:         20 EW          0 EWPERSTEP  0.000E+00
### NNP EW SUMMARY ### TS:         30 EW          0 EWPERSTEP  0.000E+00
### NNP EW SUMMARY ### TS:         40 EW          0 EWPERSTEP  0.000E+00
### NNP EW SUMMARY ### TS:         50 EW          0 EWPERSTEP  0.000E+00
### NNP EW SUMMARY ### TS:         60 EW          0 EWPERSTEP  0.000E+00
### NNP EW SUMMARY ### TS:         70 EW          0 EWPERSTEP  0.000E+00
### NNP EW SUMMARY ### TS:         80 EW          0 EWPERSTEP  0.000E+00
### NNP EW SUMMARY ### TS:         90 EW          0 EWPERSTEP  0.000E+00
### NNP EW SUMMARY ### TS:        100 EW          0 EWPERSTEP  0.000E+00
### NNP EW SUMMARY ### TS:        110 EW          0 EWPERSTEP  0.000E+00
### NNP EW SUMMARY ### TS:        120 EW          0 EWPERSTEP  0.000E+00
### NNP EW SUMMARY ### TS:        130 EW          0 EWPERSTEP  0.000E+00
### NNP EW SUMMARY ### TS:        140 EW          0 EWPERSTEP  0.000E+00
### NNP EW SUMMARY ### TS:        150 EW          0 EWPERSTEP  0.000E+00
### NNP EW SUMMARY ### TS:        160 EW          0 EWPERSTEP  0.000E+00
### NNP EW SUMMARY ### TS:        170 EW          0 EWPERSTEP  0.000E+00
### NNP EW SUMMARY ### TS:        180 EW          0 EWPERSTEP  0.000E+00
### NNP EW SUMMARY ### TS:        190 EW          0 EWPERSTEP  0.000E+00
### NNP EW SUMMARY ### TS:        200 EW          0 EWPERSTEP  0.000E+00
### NNP EW SUMMARY ### TS:        210 EW          0 EWPERSTEP  0.000E+00
### NNP EW SUMMARY ### TS:        220 EW          0 EWPERSTEP  0.000E+00
### NNP EW SUMMARY ### TS:        230 EW          0 EWPERSTEP  0.000E+00
### NNP EW SUMMARY ### TS:        240 EW          0 EWPERSTEP  0.000E+00
### NNP EW SUMMARY ### TS:        250 EW          0 EWPERSTEP  0.000E+00
### NNP EW SUMMARY ### TS:        260 EW          0 EWPERSTEP  0.000E+00
### NNP EW SUMMARY ### TS:        270 EW          0 EWPERSTEP  0.000E+00
### NNP EW SUMMARY ### TS:        280 EW          0 EWPERSTEP  0.000E+00
### NNP EW SUMMARY ### TS:        290 EW          0 EWPERSTEP  0.000E+00
### NNP EW SUMMARY ### TS:        300 EW          0 EWPERSTEP  0.000E+00
### NNP EW SUMMARY ### TS:        310 EW          0 EWPERSTEP  0.000E+00
### NNP EW SUMMARY ### TS:        320 EW          0 EWPERSTEP  0.000E+00
### NNP EW SUMMARY ### TS:        330 EW          0 EWPERSTEP  0.000E+00
### NNP EW SUMMARY ### TS:        340 EW          0 EWPERSTEP  0.000E+00
### NNP EW SUMMARY ### TS:        350 EW          0 EWPERSTEP  0.000E+00
### NNP EW SUMMARY ### TS:        360 EW          0 EWPERSTEP  0.000E+00
### NNP EW SUMMARY ### TS:        370 EW          0 EWPERSTEP  0.000E+00
### NNP EW SUMMARY ### TS:        380 EW          0 EWPERSTEP  0.000E+00
### NNP EW SUMMARY ### TS:        390 EW          0 EWPERSTEP  0.000E+00
### NNP EW SUMMARY ### TS:        400 EW          0 EWPERSTEP  0.000E+00
### NNP EW SUMMARY ### TS:        410 EW          0 EWPERSTEP  0.000E+00
### NNP EW SUMMARY ### TS:        420 EW          0 EWPERSTEP  0.000E+00
### NNP EW SUMMARY ### TS:        430 EW          0 EWPERSTEP  0.000E+00
### NNP EW SUMMARY ### TS:        440 EW          0 EWPERSTEP  0.000E+00
### NNP EW SUMMARY ### TS:        450 EW          0 EWPERSTEP  0.000E+00
### NNP EW SUMMARY ### TS:        460 EW          0 EWPERSTEP  0.000E+00
### NNP EW SUMMARY ### TS:        470 EW          0 EWPERSTEP  0.000E+00
### NNP EW SUMMARY ### TS:        480 EW          0 EWPERSTEP  0.000E+00
### NNP EW SUMMARY ### TS:        490 EW          0 EWPERSTEP  0.000E+00
### NNP EW SUMMARY ### TS:        500 EW          0 EWPERSTEP  0.000E+00
### NNP EW SUMMARY ### TS:        510 EW          0 EWPERSTEP  0.000E+00
### NNP EW SUMMARY ### TS:        520 EW          0 EWPERSTEP  0.000E+00
### NNP EW SUMMARY ### TS:        530 EW          0 EWPERSTEP  0.000E+00
### NNP EW SUMMARY ### TS:        540 EW          0 EWPERSTEP  0.000E+00
### NNP EW SUMMARY ### TS:        550 EW          0 EWPERSTEP  0.000E+00
### NNP EW SUMMARY ### TS:        560 EW          0 EWPERSTEP  0.000E+00
### NNP EW SUMMARY ### TS:        570 EW          0 EWPERSTEP  0.000E+00
### NNP EW SUMMARY ### TS:        580 EW          0 EWPERSTEP  0.000E+00
### NNP EW SUMMARY ### TS:        590 EW          0 EWPERSTEP  0.000E+00
### NNP EW SUMMARY ### TS:        600 EW          0 EWPERSTEP  0.000E+00
### NNP EW SUMMARY ### TS:        610 EW          0 EWPERSTEP  0.000E+00
### NNP EW SUMMARY ### TS:        620 EW          0 EWPERSTEP  0.000E+00
### NNP EW SUMMARY ### TS:        630 EW          0 EWPERSTEP  0.000E+00
### NNP EW SUMMARY ### TS:        640 EW          0 EWPERSTEP  0.000E+00
### NNP EW SUMMARY ### TS:        650 EW          0 EWPERSTEP  0.000E+00
### NNP EW SUMMARY ### TS:        660 EW          0 EWPERSTEP  0.000E+00
### NNP EW SUMMARY ### TS:        670 EW          0 EWPERSTEP  0.000E+00
### NNP EW SUMMARY ### TS:        680 EW          0 EWPERSTEP  0.000E+00
### NNP EW SUMMARY ### TS:        690 EW          0 EWPERSTEP  0.000E+00
### NNP EW SUMMARY ### TS:        700 EW          0 EWPERSTEP  0.000E+00
### NNP EW SUMMARY ### TS:        710 EW          0 EWPERSTEP  0.000E+00
### NNP EW SUMMARY ### TS:        720 EW          0 EWPERSTEP  0.000E+00
### NNP EW SUMMARY ### TS:        730 EW          0 EWPERSTEP  0.000E+00
### NNP EW SUMMARY ### TS:        740 EW          0 EWPERSTEP  0.000E+00
### NNP EW SUMMARY ### TS:        750 EW          0 EWPERSTEP  0.000E+00
### NNP EW SUMMARY ### TS:        760 EW          0 EWPERSTEP  0.000E+00
### NNP EW SUMMARY ### TS:        770 EW          0 EWPERSTEP  0.000E+00
### NNP EW SUMMARY ### TS:        780 EW          0 EWPERSTEP  0.000E+00
### NNP EW SUMMARY ### TS:        790 EW          0 EWPERSTEP  0.000E+00
### NNP EW SUMMARY ### TS:        800 EW          0 EWPERSTEP  0.000E+00
### NNP EW SUMMARY ### TS:        810 EW          0 EWPERSTEP  0.000E+00
### NNP EW SUMMARY ### TS:        820 EW          0 EWPERSTEP  0.000E+00
### NNP EW SUMMARY ### TS:        830 EW          0 EWPERSTEP  0.000E+00
### NNP EW SUMMARY ### TS:        840 EW          0 EWPERSTEP  0.000E+00
### NNP EW SUMMARY ### TS:        850 EW          0 EWPERSTEP  0.000E+00
### NNP EW SUMMARY ### TS:        860 EW          0 EWPERSTEP  0.000E+00
### NNP EW SUMMARY ### TS:        870 EW          0 EWPERSTEP  0.000E+00
### NNP EW SUMMARY ### TS:        880 EW          0 EWPERSTEP  0.000E+00
### NNP EW SUMMARY ### TS:        890 EW          0 EWPERSTEP  0.000E+00
### NNP EW SUMMARY ### TS:        900 EW          0 EWPERSTEP  0.000E+00
### NNP EW SUMMARY ### TS:        910 EW          0 EWPERSTEP  0.000E+00
### NNP EW SUMMARY ### TS:        920 EW          0 EWPERSTEP  0.000E+00
### NNP EW SUMMARY ### TS:        930 EW          0 EWPERSTEP  0.000E+00
### NNP EW SUMMARY ### TS:        940 EW          0 EWPERSTEP  0.000E+00
### NNP EW SUMMARY ### TS:        950 EW          0 EWPERSTEP  0.000E+00
### NNP EW SUMMARY ### TS:        960 EW          0 EWPERSTEP  0.000E+00
### NNP EW SUMMARY ### TS:        970 EW          0 EWPERSTEP  0.000E+00
### NNP EW SUMMARY ### TS:        980 EW          0 EWPERSTEP  0.000E+00
### NNP EW SUMMARY ### TS:        990 EW          0 EWPERSTEP  0.000E+00
### NNP EW SUMMARY ### TS:       1000 EW          0 EWPERSTEP  0.000E+00
### NNP EW SUMMARY ### TS:       1010 EW          0 EWPERSTEP  0.000E+00
### NNP EW SUMMARY ### TS:       1020 EW          0 EWPERSTEP  0.000E+00
### NNP EW SUMMARY ### TS:       1030 EW          0 EWPERSTEP  0.000E+00
### NNP EW SUMMARY ### TS:       1040 EW          0 EWPERSTEP  0.000E+00
### NNP EW SUMMARY ### TS:       1050 EW          0 EWPERSTEP  0.000E+00
### NNP EW SUMMARY ### TS:       1060 EW          0 EWPERSTEP  0.000E+00
### NNP EW SUMMARY ### TS:       1070 EW          0 EWPERSTEP  0.000E+00
### NNP EW SUMMARY ### TS:       1080 EW          0 EWPERSTEP  0.000E+00
### NNP EW SUMMARY ### TS:       1090 EW          0 EWPERSTEP  0.000E+00
### NNP EW SUMMARY ### TS:       1100 EW          0 EWPERSTEP  0.000E+00
### NNP EW SUMMARY ### TS:       1110 EW          0 EWPERSTEP  0.000E+00
### NNP EW SUMMARY ### TS:       1120 EW          0 EWPERSTEP  0.000E+00
### NNP EW SUMMARY ### TS:       1130 EW          0 EWPERSTEP  0.000E+00
### NNP EW SUMMARY ### TS:       1140 EW          0 EWPERSTEP  0.000E+00
### NNP EW SUMMARY ### TS:       1150 EW          0 EWPERSTEP  0.000E+00
### NNP EW SUMMARY ### TS:       1160 EW          0 EWPERSTEP  0.000E+00
### NNP EW SUMMARY ### TS:       1170 EW          0 EWPERSTEP  0.000E+00
### NNP EW SUMMARY ### TS:       1180 EW          0 EWPERSTEP  0.000E+00
### NNP EW SUMMARY ### TS:       1190 EW          0 EWPERSTEP  0.000E+00
### NNP EW SUMMARY ### TS:       1200 EW          0 EWPERSTEP  0.000E+00
### NNP EW SUMMARY ### TS:       1210 EW          0 EWPERSTEP  0.000E+00
### NNP EW SUMMARY ### TS:       1220 EW          0 EWPERSTEP  0.000E+00
### NNP EW SUMMARY ### TS:       1230 EW          0 EWPERSTEP  0.000E+00
### NNP EW SUMMARY ### TS:       1240 EW          0 EWPERSTEP  0.000E+00
### NNP EW SUMMARY ### TS:       1250 EW          0 EWPERSTEP  0.000E+00
### NNP EW SUMMARY ### TS:       1260 EW          0 EWPERSTEP  0.000E+00
### NNP EW SUMMARY ### TS:       1270 EW          0 EWPERSTEP  0.000E+00
### NNP EW SUMMARY ### TS:       1280 EW          0 EWPERSTEP  0.000E+00
### NNP EW SUMMARY ### TS:       1290 EW          0 EWPERSTEP  0.000E+00
### NNP EW SUMMARY ### TS:       1300 EW          0 EWPERSTEP  0.000E+00
### NNP EW SUMMARY ### TS:       1310 EW          0 EWPERSTEP  0.000E+00
### NNP EW SUMMARY ### TS:       1320 EW          0 EWPERSTEP  0.000E+00
### NNP EW SUMMARY ### TS:       1330 EW          0 EWPERSTEP  0.000E+00
### NNP EW SUMMARY ### TS:       1340 EW          0 EWPERSTEP  0.000E+00
### NNP EW SUMMARY ### TS:       1350 EW          0 EWPERSTEP  0.000E+00
### NNP EW SUMMARY ### TS:       1360 EW          0 EWPERSTEP  0.000E+00
### NNP EW SUMMARY ### TS:       1370 EW          0 EWPERSTEP  0.000E+00
### NNP EW SUMMARY ### TS:       1380 EW          0 EWPERSTEP  0.000E+00
### NNP EW SUMMARY ### TS:       1390 EW          0 EWPERSTEP  0.000E+00
### NNP EW SUMMARY ### TS:       1400 EW          0 EWPERSTEP  0.000E+00
### NNP EW SUMMARY ### TS:       1410 EW          0 EWPERSTEP  0.000E+00
### NNP EW SUMMARY ### TS:       1420 EW          0 EWPERSTEP  0.000E+00
### NNP EW SUMMARY ### TS:       1430 EW          0 EWPERSTEP  0.000E+00
### NNP EW SUMMARY ### TS:       1440 EW          0 EWPERSTEP  0.000E+00
### NNP EW SUMMARY ### TS:       1450 EW          0 EWPERSTEP  0.000E+00
### NNP EW SUMMARY ### TS:       1460 EW          0 EWPERSTEP  0.000E+00
### NNP EW SUMMARY ### TS:       1470 EW          0 EWPERSTEP  0.000E+00
### NNP EW SUMMARY ### TS:       1480 EW          0 EWPERSTEP  0.000E+00
### NNP EW SUMMARY ### TS:       1490 EW          0 EWPERSTEP  0.000E+00
### NNP EW SUMMARY ### TS:       1500 EW          0 EWPERSTEP  0.000E+00
### NNP EW SUMMARY ### TS:       1510 EW          0 EWPERSTEP  0.000E+00
### NNP EW SUMMARY ### TS:       1520 EW          0 EWPERSTEP  0.000E+00
### NNP EW SUMMARY ### TS:       1530 EW          0 EWPERSTEP  0.000E+00
### NNP EW SUMMARY ### TS:       1540 EW          0 EWPERSTEP  0.000E+00
### NNP EW SUMMARY ### TS:       1550 EW          0 EWPERSTEP  0.000E+00
### NNP EW SUMMARY ### TS:       1560 EW          0 EWPERSTEP  0.000E+00
### NNP EW SUMMARY ### TS:       1570 EW          0 EWPERSTEP  0.000E+00
### NNP EW SUMMARY ### TS:       1580 EW          0 EWPERSTEP  0.000E+00
### NNP EW SUMMARY ### TS:       1590 EW          0 EWPERSTEP  0.000E+00
### NNP EW SUMMARY ### TS:       1600 EW          0 EWPERSTEP  0.000E+00
### NNP EW SUMMARY ### TS:       1610 EW          0 EWPERSTEP  0.000E+00
### NNP EW SUMMARY ### TS:       1620 EW          0 EWPERSTEP  0.000E+00
### NNP EW SUMMARY ### TS:       1630 EW          0 EWPERSTEP  0.000E+00
### NNP EW SUMMARY ### TS:       1640 EW          0 EWPERSTEP  0.000E+00
### NNP EW SUMMARY ### TS:       1650 EW          0 EWPERSTEP  0.000E+00
### NNP EW SUMMARY ### TS:       1660 EW          0 EWPERSTEP  0.000E+00
### NNP EW SUMMARY ### TS:       1670 EW          0 EWPERSTEP  0.000E+00
### NNP EW SUMMARY ### TS:       1680 EW          0 EWPERSTEP  0.000E+00
### NNP EW SUMMARY ### TS:       1690 EW          0 EWPERSTEP  0.000E+00
### NNP EW SUMMARY ### TS:       1700 EW          0 EWPERSTEP  0.000E+00
### NNP EW SUMMARY ### TS:       1710 EW          0 EWPERSTEP  0.000E+00
### NNP EW SUMMARY ### TS:       1720 EW          0 EWPERSTEP  0.000E+00
### NNP EW SUMMARY ### TS:       1730 EW          0 EWPERSTEP  0.000E+00
### NNP EW SUMMARY ### TS:       1740 EW          0 EWPERSTEP  0.000E+00
### NNP EW SUMMARY ### TS:       1750 EW          0 EWPERSTEP  0.000E+00
### NNP EW SUMMARY ### TS:       1760 EW          0 EWPERSTEP  0.000E+00
### NNP EW SUMMARY ### TS:       1770 EW          0 EWPERSTEP  0.000E+00
### NNP EW SUMMARY ### TS:       1780 EW          0 EWPERSTEP  0.000E+00
### NNP EW SUMMARY ### TS:       1790 EW          0 EWPERSTEP  0.000E+00
### NNP EW SUMMARY ### TS:       1800 EW          0 EWPERSTEP  0.000E+00
### NNP EW SUMMARY ### TS:       1810 EW          0 EWPERSTEP  0.000E+00
### NNP EW SUMMARY ### TS:       1820 EW          0 EWPERSTEP  0.000E+00
### NNP EW SUMMARY ### TS:       1830 EW          0 EWPERSTEP  0.000E+00
### NNP EW SUMMARY ### TS:       1840 EW          0 EWPERSTEP  0.000E+00
### NNP EW SUMMARY ### TS:       1850 EW          0 EWPERSTEP  0.000E+00
### NNP EW SUMMARY ### TS:       1860 EW          0 EWPERSTEP  0.000E+00
### NNP EW SUMMARY ### TS:       1870 EW          0 EWPERSTEP  0.000E+00
### NNP EW SUMMARY ### TS:       1880 EW          0 EWPERSTEP  0.000E+00
### NNP EW SUMMARY ### TS:       1890 EW          0 EWPERSTEP  0.000E+00
### NNP EW SUMMARY ### TS:       1900 EW          0 EWPERSTEP  0.000E+00
### NNP EW SUMMARY ### TS:       1910 EW          0 EWPERSTEP  0.000E+00
### NNP EW SUMMARY ### TS:       1920 EW          0 EWPERSTEP  0.000E+00
### NNP EW SUMMARY ### TS:       1930 EW          0 EWPERSTEP  0.000E+00
### NNP EW SUMMARY ### TS:       1940 EW          0 EWPERSTEP  0.000E+00
### NNP EW SUMMARY ### TS:       1950 EW          0 EWPERSTEP  0.000E+00
### NNP EW SUMMARY ### TS:       1960 EW          0 EWPERSTEP  0.000E+00
### NNP EW SUMMARY ### TS:       1970 EW          0 EWPERSTEP  0.000E+00
### NNP EW SUMMARY ### TS:       1980 EW          0 EWPERSTEP  0.000E+00
### NNP EW SUMMARY ### TS:       1990 EW          0 EWPERSTEP  0.000E+00
### NNP EW SUMMARY ### TS:       2000 EW          0 EWPERSTEP  0.000E+00
### NNP EW SUMMARY ### TS:       2010 EW          0 EWPERSTEP  0.000E+00
### NNP EW SUMMARY ### TS:       2020 EW          0 EWPERSTEP  0.000E+00
### NNP EW SUMMARY ### TS:       2030 EW          0 EWPERSTEP  0.000E+00
### NNP EW SUMMARY ### TS:       2040 EW          0 EWPERSTEP  0.000E+00
### NNP EW SUMMARY ### TS:       2050 EW          0 EWPERSTEP  0.000E+00
### NNP EW SUMMARY ### TS:       2060 EW          0 EWPERSTEP  0.000E+00
### NNP EW SUMMARY ### TS:       2070 EW          0 EWPERSTEP  0.000E+00
### NNP EW SUMMARY ### TS:       2080 EW          0 EWPERSTEP  0.000E+00
### NNP EW SUMMARY ### TS:       2090 EW          0 EWPERSTEP  0.000E+00
### NNP EW SUMMARY ### TS:       2100 EW          0 EWPERSTEP  0.000E+00
### NNP EW SUMMARY ### TS:       2110 EW          0 EWPERSTEP  0.000E+00
### NNP EW SUMMARY ### TS:       2120 EW          0 EWPERSTEP  0.000E+00
### NNP EW SUMMARY ### TS:       2130 EW          0 EWPERSTEP  0.000E+00
### NNP EW SUMMARY ### TS:       2140 EW          0 EWPERSTEP  0.000E+00
### NNP EW SUMMARY ### TS:       2150 EW          0 EWPERSTEP  0.000E+00
### NNP EW SUMMARY ### TS:       2160 EW          0 EWPERSTEP  0.000E+00
### NNP EW SUMMARY ### TS:       2170 EW          0 EWPERSTEP  0.000E+00
### NNP EW SUMMARY ### TS:       2180 EW          0 EWPERSTEP  0.000E+00
### NNP EW SUMMARY ### TS:       2190 EW          0 EWPERSTEP  0.000E+00
### NNP EW SUMMARY ### TS:       2200 EW          0 EWPERSTEP  0.000E+00
### NNP EW SUMMARY ### TS:       2210 EW          0 EWPERSTEP  0.000E+00
### NNP EW SUMMARY ### TS:       2220 EW          0 EWPERSTEP  0.000E+00
### NNP EW SUMMARY ### TS:       2230 EW          0 EWPERSTEP  0.000E+00
### NNP EW SUMMARY ### TS:       2240 EW          0 EWPERSTEP  0.000E+00
### NNP EW SUMMARY ### TS:       2250 EW          0 EWPERSTEP  0.000E+00
### NNP EW SUMMARY ### TS:       2260 EW          0 EWPERSTEP  0.000E+00
### NNP EW SUMMARY ### TS:       2270 EW          0 EWPERSTEP  0.000E+00
### NNP EW SUMMARY ### TS:       2280 EW          0 EWPERSTEP  0.000E+00
### NNP EW SUMMARY ### TS:       2290 EW          0 EWPERSTEP  0.000E+00
### NNP EW SUMMARY ### TS:       2300 EW          0 EWPERSTEP  0.000E+00
### NNP EW SUMMARY ### TS:       2310 EW          0 EWPERSTEP  0.000E+00
### NNP EW SUMMARY ### TS:       2320 EW          0 EWPERSTEP  0.000E+00
### NNP EW SUMMARY ### TS:       2330 EW          0 EWPERSTEP  0.000E+00
### NNP EW SUMMARY ### TS:       2340 EW          0 EWPERSTEP  0.000E+00
### NNP EW SUMMARY ### TS:       2350 EW          0 EWPERSTEP  0.000E+00
### NNP EW SUMMARY ### TS:       2360 EW          0 EWPERSTEP  0.000E+00
### NNP EW SUMMARY ### TS:       2370 EW          0 EWPERSTEP  0.000E+00
### NNP EW SUMMARY ### TS:       2380 EW          0 EWPERSTEP  0.000E+00
### NNP EW SUMMARY ### TS:       2390 EW          0 EWPERSTEP  0.000E+00
### NNP EW SUMMARY ### TS:       2400 EW          0 EWPERSTEP  0.000E+00
### NNP EW SUMMARY ### TS:       2410 EW          0 EWPERSTEP  0.000E+00
### NNP EW SUMMARY ### TS:       2420 EW          0 EWPERSTEP  0.000E+00
### NNP EW SUMMARY ### TS:       2430 EW          0 EWPERSTEP  0.000E+00
### NNP EW SUMMARY ### TS:       2440 EW          0 EWPERSTEP  0.000E+00
### NNP EW SUMMARY ### TS:       2450 EW          0 EWPERSTEP  0.000E+00
### NNP EW SUMMARY ### TS:       2460 EW          0 EWPERSTEP  0.000E+00
### NNP EW SUMMARY ### TS:       2470 EW          0 EWPERSTEP  0.000E+00
### NNP EW SUMMARY ### TS:       2480 EW          0 EWPERSTEP  0.000E+00
### NNP EW SUMMARY ### TS:       2490 EW          0 EWPERSTEP  0.000E+00
### NNP EW SUMMARY ### TS:       2500 EW          0 EWPERSTEP  0.000E+00
### NNP EW SUMMARY ### TS:       2510 EW          0 EWPERSTEP  0.000E+00
### NNP EW SUMMARY ### TS:       2520 EW          0 EWPERSTEP  0.000E+00
### NNP EW SUMMARY ### TS:       2530 EW          0 EWPERSTEP  0.000E+00
### NNP EW SUMMARY ### TS:       2540 EW          0 EWPERSTEP  0.000E+00
### NNP EW SUMMARY ### TS:       2550 EW          0 EWPERSTEP  0.000E+00
### NNP EW SUMMARY ### TS:       2560 EW          0 EWPERSTEP  0.000E+00
### NNP EW SUMMARY ### TS:       2570 EW          0 EWPERSTEP  0.000E+00
### NNP EW SUMMARY ### TS:       2580 EW          0 EWPERSTEP  0.000E+00
### NNP EW SUMMARY ### TS:       2590 EW          0 EWPERSTEP  0.000E+00
### NNP EW SUMMARY ### TS:       2600 EW          0 EWPERSTEP  0.000E+00
### NNP EW SUMMARY ### TS:       2610 EW          0 EWPERSTEP  0.000E+00
### NNP EW SUMMARY ### TS:       2620 EW          0 EWPERSTEP  0.000E+00
### NNP EW SUMMARY ### TS:       2630 EW          0 EWPERSTEP  0.000E+00
### NNP EW SUMMARY ### TS:       2640 EW          0 EWPERSTEP  0.000E+00
### NNP EW SUMMARY ### TS:       2650 EW          0 EWPERSTEP  0.000E+00
### NNP EW SUMMARY ### TS:       2660 EW          0 EWPERSTEP  0.000E+00
### NNP EW SUMMARY ### TS:       2670 EW          0 EWPERSTEP  0.000E+00
### NNP EW SUMMARY ### TS:       2680 EW          0 EWPERSTEP  0.000E+00
### NNP EW SUMMARY ### TS:       2690 EW          0 EWPERSTEP  0.000E+00
### NNP EW SUMMARY ### TS:       2700 EW          0 EWPERSTEP  0.000E+00
### NNP EW SUMMARY ### TS:       2710 EW          0 EWPERSTEP  0.000E+00
### NNP EW SUMMARY ### TS:       2720 EW          0 EWPERSTEP  0.000E+00
### NNP EW SUMMARY ### TS:       2730 EW          0 EWPERSTEP  0.000E+00
### NNP EW SUMMARY ### TS:       2740 EW          0 EWPERSTEP  0.000E+00
### NNP EW SUMMARY ### TS:       2750 EW          0 EWPERSTEP  0.000E+00
### NNP EW SUMMARY ### TS:       2760 EW          0 EWPERSTEP  0.000E+00
### NNP EW SUMMARY ### TS:       2770 EW          0 EWPERSTEP  0.000E+00
### NNP EW SUMMARY ### TS:       2780 EW          0 EWPERSTEP  0.000E+00
### NNP EW SUMMARY ### TS:       2790 EW          0 EWPERSTEP  0.000E+00
### NNP EW SUMMARY ### TS:       2800 EW          0 EWPERSTEP  0.000E+00
### NNP EW SUMMARY ### TS:       2810 EW          0 EWPERSTEP  0.000E+00
### NNP EW SUMMARY ### TS:       2820 EW          0 EWPERSTEP  0.000E+00
### NNP EW SUMMARY ### TS:       2830 EW          0 EWPERSTEP  0.000E+00
### NNP EW SUMMARY ### TS:       2840 EW          0 EWPERSTEP  0.000E+00
### NNP EW SUMMARY ### TS:       2850 EW          0 EWPERSTEP  0.000E+00
### NNP EW SUMMARY ### TS:       2860 EW          0 EWPERSTEP  0.000E+00
### NNP EW SUMMARY ### TS:       2870 EW          0 EWPERSTEP  0.000E+00
### NNP EW SUMMARY ### TS:       2880 EW          0 EWPERSTEP  0.000E+00
### NNP EW SUMMARY ### TS:       2890 EW          0 EWPERSTEP  0.000E+00
### NNP EW SUMMARY ### TS:       2900 EW          0 EWPERSTEP  0.000E+00
### NNP EW SUMMARY ### TS:       2910 EW          0 EWPERSTEP  0.000E+00
### NNP EW SUMMARY ### TS:       2920 EW          0 EWPERSTEP  0.000E+00
### NNP EW SUMMARY ### TS:       2930 EW          0 EWPERSTEP  0.000E+00
### NNP EW SUMMARY ### TS:       2940 EW          0 EWPERSTEP  0.000E+00
### NNP EW SUMMARY ### TS:       2950 EW          0 EWPERSTEP  0.000E+00
### NNP EW SUMMARY ### TS:       2960 EW          0 EWPERSTEP  0.000E+00
### NNP EW SUMMARY ### TS:       2970 EW          0 EWPERSTEP  0.000E+00
### NNP EW SUMMARY ### TS:       2980 EW          0 EWPERSTEP  0.000E+00
### NNP EW SUMMARY ### TS:       2990 EW          0 EWPERSTEP  0.000E+00
### NNP EW SUMMARY ### TS:       3000 EW          0 EWPERSTEP  0.000E+00
### NNP EW SUMMARY ### TS:       3010 EW          0 EWPERSTEP  0.000E+00
### NNP EW SUMMARY ### TS:       3020 EW          0 EWPERSTEP  0.000E+00
### NNP EW SUMMARY ### TS:       3030 EW          0 EWPERSTEP  0.000E+00
### NNP EW SUMMARY ### TS:       3040 EW          0 EWPERSTEP  0.000E+00
### NNP EW SUMMARY ### TS:       3050 EW          0 EWPERSTEP  0.000E+00
### NNP EW SUMMARY ### TS:       3060 EW          0 EWPERSTEP  0.000E+00
### NNP EW SUMMARY ### TS:       3070 EW          0 EWPERSTEP  0.000E+00
### NNP EW SUMMARY ### TS:       3080 EW          0 EWPERSTEP  0.000E+00
### NNP EW SUMMARY ### TS:       3090 EW          0 EWPERSTEP  0.000E+00
### NNP EW SUMMARY ### TS:       3100 EW          0 EWPERSTEP  0.000E+00
### NNP EW SUMMARY ### TS:       3110 EW          0 EWPERSTEP  0.000E+00
### NNP EW SUMMARY ### TS:       3120 EW          0 EWPERSTEP  0.000E+00
### NNP EW SUMMARY ### TS:       3130 EW          0 EWPERSTEP  0.000E+00
### NNP EW SUMMARY ### TS:       3140 EW          0 EWPERSTEP  0.000E+00
### NNP EW SUMMARY ### TS:       3150 EW          0 EWPERSTEP  0.000E+00
### NNP EW SUMMARY ### TS:       3160 EW          0 EWPERSTEP  0.000E+00
### NNP EW SUMMARY ### TS:       3170 EW          0 EWPERSTEP  0.000E+00
### NNP EW SUMMARY ### TS:       3180 EW          0 EWPERSTEP  0.000E+00
### NNP EW SUMMARY ### TS:       3190 EW          0 EWPERSTEP  0.000E+00
### NNP EW SUMMARY ### TS:       3200 EW          0 EWPERSTEP  0.000E+00
### NNP EW SUMMARY ### TS:       3210 EW          0 EWPERSTEP  0.000E+00
### NNP EW SUMMARY ### TS:       3220 EW          0 EWPERSTEP  0.000E+00
### NNP EW SUMMARY ### TS:       3230 EW          0 EWPERSTEP  0.000E+00
### NNP EW SUMMARY ### TS:       3240 EW          0 EWPERSTEP  0.000E+00
### NNP EW SUMMARY ### TS:       3250 EW          0 EWPERSTEP  0.000E+00
### NNP EW SUMMARY ### TS:       3260 EW          0 EWPERSTEP  0.000E+00
### NNP EW SUMMARY ### TS:       3270 EW          0 EWPERSTEP  0.000E+00
### NNP EW SUMMARY ### TS:       3280 EW          0 EWPERSTEP  0.000E+00
### NNP EW SUMMARY ### TS:       3290 EW          0 EWPERSTEP  0.000E+00
### NNP EW SUMMARY ### TS:       3300 EW          0 EWPERSTEP  0.000E+00
### NNP EW SUMMARY ### TS:       3310 EW          0 EWPERSTEP  0.000E+00
### NNP EW SUMMARY ### TS:       3320 EW          0 EWPERSTEP  0.000E+00
### NNP EW SUMMARY ### TS:       3330 EW          0 EWPERSTEP  0.000E+00
### NNP EW SUMMARY ### TS:       3340 EW          0 EWPERSTEP  0.000E+00
### NNP EW SUMMARY ### TS:       3350 EW          0 EWPERSTEP  0.000E+00
### NNP EW SUMMARY ### TS:       3360 EW          0 EWPERSTEP  0.000E+00
### NNP EW SUMMARY ### TS:       3370 EW          0 EWPERSTEP  0.000E+00
### NNP EW SUMMARY ### TS:       3380 EW          0 EWPERSTEP  0.000E+00
### NNP EW SUMMARY ### TS:       3390 EW          0 EWPERSTEP  0.000E+00
### NNP EW SUMMARY ### TS:       3400 EW          0 EWPERSTEP  0.000E+00
### NNP EW SUMMARY ### TS:       3410 EW          0 EWPERSTEP  0.000E+00
### NNP EW SUMMARY ### TS:       3420 EW          0 EWPERSTEP  0.000E+00
### NNP EW SUMMARY ### TS:       3430 EW          0 EWPERSTEP  0.000E+00
### NNP EW SUMMARY ### TS:       3440 EW          0 EWPERSTEP  0.000E+00
### NNP EW SUMMARY ### TS:       3450 EW          0 EWPERSTEP  0.000E+00
### NNP EW SUMMARY ### TS:       3460 EW          0 EWPERSTEP  0.000E+00
### NNP EW SUMMARY ### TS:       3470 EW          0 EWPERSTEP  0.000E+00
### NNP EW SUMMARY ### TS:       3480 EW          0 EWPERSTEP  0.000E+00
### NNP EW SUMMARY ### TS:       3490 EW          0 EWPERSTEP  0.000E+00
### NNP EW SUMMARY ### TS:       3500 EW          0 EWPERSTEP  0.000E+00
### NNP EW SUMMARY ### TS:       3510 EW          0 EWPERSTEP  0.000E+00
### NNP EW SUMMARY ### TS:       3520 EW          0 EWPERSTEP  0.000E+00
### NNP EW SUMMARY ### TS:       3530 EW          0 EWPERSTEP  0.000E+00
### NNP EW SUMMARY ### TS:       3540 EW          0 EWPERSTEP  0.000E+00
### NNP EW SUMMARY ### TS:       3550 EW          0 EWPERSTEP  0.000E+00
### NNP EW SUMMARY ### TS:       3560 EW          0 EWPERSTEP  0.000E+00
### NNP EW SUMMARY ### TS:       3570 EW          0 EWPERSTEP  0.000E+00
### NNP EW SUMMARY ### TS:       3580 EW          0 EWPERSTEP  0.000E+00
### NNP EW SUMMARY ### TS:       3590 EW          0 EWPERSTEP  0.000E+00
### NNP EW SUMMARY ### TS:       3600 EW          0 EWPERSTEP  0.000E+00
### NNP EW SUMMARY ### TS:       3610 EW          0 EWPERSTEP  0.000E+00
### NNP EW SUMMARY ### TS:       3620 EW          0 EWPERSTEP  0.000E+00
### NNP EW SUMMARY ### TS:       3630 EW          0 EWPERSTEP  0.000E+00
### NNP EW SUMMARY ### TS:       3640 EW          0 EWPERSTEP  0.000E+00
### NNP EW SUMMARY ### TS:       3650 EW          0 EWPERSTEP  0.000E+00
### NNP EW SUMMARY ### TS:       3660 EW          0 EWPERSTEP  0.000E+00
### NNP EW SUMMARY ### TS:       3670 EW          0 EWPERSTEP  0.000E+00
### NNP EW SUMMARY ### TS:       3680 EW          0 EWPERSTEP  0.000E+00
### NNP EW SUMMARY ### TS:       3690 EW          0 EWPERSTEP  0.000E+00
### NNP EW SUMMARY ### TS:       3700 EW          0 EWPERSTEP  0.000E+00
### NNP EW SUMMARY ### TS:       3710 EW          0 EWPERSTEP  0.000E+00
### NNP EW SUMMARY ### TS:       3720 EW          0 EWPERSTEP  0.000E+00
### NNP EW SUMMARY ### TS:       3730 EW          0 EWPERSTEP  0.000E+00
### NNP EW SUMMARY ### TS:       3740 EW          0 EWPERSTEP  0.000E+00
### NNP EW SUMMARY ### TS:       3750 EW          0 EWPERSTEP  0.000E+00
### NNP EW SUMMARY ### TS:       3760 EW          0 EWPERSTEP  0.000E+00
### NNP EW SUMMARY ### TS:       3770 EW          0 EWPERSTEP  0.000E+00
### NNP EW SUMMARY ### TS:       3780 EW          0 EWPERSTEP  0.000E+00
### NNP EW SUMMARY ### TS:       3790 EW          0 EWPERSTEP  0.000E+00
### NNP EW SUMMARY ### TS:       3800 EW          0 EWPERSTEP  0.000E+00
### NNP EW SUMMARY ### TS:       3810 EW          0 EWPERSTEP  0.000E+00
### NNP EW SUMMARY ### TS:       3820 EW          0 EWPERSTEP  0.000E+00
### NNP EW SUMMARY ### TS:       3830 EW          0 EWPERSTEP  0.000E+00
### NNP EW SUMMARY ### TS:       3840 EW          0 EWPERSTEP  0.000E+00
### NNP EW SUMMARY ### TS:       3850 EW          0 EWPERSTEP  0.000E+00
### NNP EW SUMMARY ### TS:       3860 EW          0 EWPERSTEP  0.000E+00
### NNP EW SUMMARY ### TS:       3870 EW          0 EWPERSTEP  0.000E+00
### NNP EW SUMMARY ### TS:       3880 EW          0 EWPERSTEP  0.000E+00
### NNP EW SUMMARY ### TS:       3890 EW          0 EWPERSTEP  0.000E+00
### NNP EW SUMMARY ### TS:       3900 EW          0 EWPERSTEP  0.000E+00
### NNP EW SUMMARY ### TS:       3910 EW          0 EWPERSTEP  0.000E+00
### NNP EW SUMMARY ### TS:       3920 EW          0 EWPERSTEP  0.000E+00
### NNP EW SUMMARY ### TS:       3930 EW          0 EWPERSTEP  0.000E+00
### NNP EW SUMMARY ### TS:       3940 EW          0 EWPERSTEP  0.000E+00
### NNP EW SUMMARY ### TS:       3950 EW          0 EWPERSTEP  0.000E+00
### NNP EW SUMMARY ### TS:       3960 EW          0 EWPERSTEP  0.000E+00
### NNP EW SUMMARY ### TS:       3970 EW          0 EWPERSTEP  0.000E+00
### NNP EW SUMMARY ### TS:       3980 EW          0 EWPERSTEP  0.000E+00
### NNP EW SUMMARY ### TS:       3990 EW          0 EWPERSTEP  0.000E+00
### NNP EW SUMMARY ### TS:       4000 EW          0 EWPERSTEP  0.000E+00
### NNP EW SUMMARY ### TS:       4010 EW          0 EWPERSTEP  0.000E+00
### NNP EW SUMMARY ### TS:       4020 EW          0 EWPERSTEP  0.000E+00
### NNP EW SUMMARY ### TS:       4030 EW          0 EWPERSTEP  0.000E+00
### NNP EW SUMMARY ### TS:       4040 EW          0 EWPERSTEP  0.000E+00
### NNP EW SUMMARY ### TS:       4050 EW          0 EWPERSTEP  0.000E+00
### NNP EW SUMMARY ### TS:       4060 EW          0 EWPERSTEP  0.000E+00
### NNP EW SUMMARY ### TS:       4070 EW          0 EWPERSTEP  0.000E+00
### NNP EW SUMMARY ### TS:       4080 EW          0 EWPERSTEP  0.000E+00
### NNP EW SUMMARY ### TS:       4090 EW          0 EWPERSTEP  0.000E+00
### NNP EW SUMMARY ### TS:       4100 EW          0 EWPERSTEP  0.000E+00
### NNP EW SUMMARY ### TS:       4110 EW          0 EWPERSTEP  0.000E+00
### NNP EW SUMMARY ### TS:       4120 EW          0 EWPERSTEP  0.000E+00
### NNP EW SUMMARY ### TS:       4130 EW          0 EWPERSTEP  0.000E+00
### NNP EW SUMMARY ### TS:       4140 EW          0 EWPERSTEP  0.000E+00
### NNP EW SUMMARY ### TS:       4150 EW          0 EWPERSTEP  0.000E+00
### NNP EW SUMMARY ### TS:       4160 EW          0 EWPERSTEP  0.000E+00
### NNP EW SUMMARY ### TS:       4170 EW          0 EWPERSTEP  0.000E+00
### NNP EW SUMMARY ### TS:       4180 EW          0 EWPERSTEP  0.000E+00
### NNP EW SUMMARY ### TS:       4190 EW          0 EWPERSTEP  0.000E+00
### NNP EW SUMMARY ### TS:       4200 EW          0 EWPERSTEP  0.000E+00
### NNP EW SUMMARY ### TS:       4210 EW          0 EWPERSTEP  0.000E+00
### NNP EW SUMMARY ### TS:       4220 EW          0 EWPERSTEP  0.000E+00
### NNP EW SUMMARY ### TS:       4230 EW          0 EWPERSTEP  0.000E+00
### NNP EW SUMMARY ### TS:       4240 EW          0 EWPERSTEP  0.000E+00
### NNP EW SUMMARY ### TS:       4250 EW          0 EWPERSTEP  0.000E+00
### NNP EW SUMMARY ### TS:       4260 EW          0 EWPERSTEP  0.000E+00
### NNP EW SUMMARY ### TS:       4270 EW          0 EWPERSTEP  0.000E+00
### NNP EW SUMMARY ### TS:       4280 EW          0 EWPERSTEP  0.000E+00
### NNP EW SUMMARY ### TS:       4290 EW          0 EWPERSTEP  0.000E+00
### NNP EW SUMMARY ### TS:       4300 EW          0 EWPERSTEP  0.000E+00
### NNP EW SUMMARY ### TS:       4310 EW          0 EWPERSTEP  0.000E+00
### NNP EW SUMMARY ### TS:       4320 EW          0 EWPERSTEP  0.000E+00
### NNP EW SUMMARY ### TS:       4330 EW          0 EWPERSTEP  0.000E+00
### NNP EW SUMMARY ### TS:       4340 EW          0 EWPERSTEP  0.000E+00
### NNP EW SUMMARY ### TS:       4350 EW          0 EWPERSTEP  0.000E+00
### NNP EW SUMMARY ### TS:       4360 EW          0 EWPERSTEP  0.000E+00
### NNP EW SUMMARY ### TS:       4370 EW          0 EWPERSTEP  0.000E+00
### NNP EW SUMMARY ### TS:       4380 EW          0 EWPERSTEP  0.000E+00
### NNP EW SUMMARY ### TS:       4390 EW          0 EWPERSTEP  0.000E+00
### NNP EW SUMMARY ### TS:       4400 EW          0 EWPERSTEP  0.000E+00
### NNP EW SUMMARY ### TS:       4410 EW          0 EWPERSTEP  0.000E+00
### NNP EW SUMMARY ### TS:       4420 EW          0 EWPERSTEP  0.000E+00
### NNP EW SUMMARY ### TS:       4430 EW          0 EWPERSTEP  0.000E+00
### NNP EW SUMMARY ### TS:       4440 EW          0 EWPERSTEP  0.000E+00
### NNP EW SUMMARY ### TS:       4450 EW          0 EWPERSTEP  0.000E+00
### NNP EW SUMMARY ### TS:       4460 EW          0 EWPERSTEP  0.000E+00
### NNP EW SUMMARY ### TS:       4470 EW          0 EWPERSTEP  0.000E+00
### NNP EW SUMMARY ### TS:       4480 EW          0 EWPERSTEP  0.000E+00
### NNP EW SUMMARY ### TS:       4490 EW          0 EWPERSTEP  0.000E+00
### NNP EW SUMMARY ### TS:       4500 EW          0 EWPERSTEP  0.000E+00
### NNP EW SUMMARY ### TS:       4510 EW          0 EWPERSTEP  0.000E+00
### NNP EW SUMMARY ### TS:       4520 EW          0 EWPERSTEP  0.000E+00
### NNP EW SUMMARY ### TS:       4530 EW          0 EWPERSTEP  0.000E+00
### NNP EW SUMMARY ### TS:       4540 EW          0 EWPERSTEP  0.000E+00
### NNP EW SUMMARY ### TS:       4550 EW          0 EWPERSTEP  0.000E+00
### NNP EW SUMMARY ### TS:       4560 EW          0 EWPERSTEP  0.000E+00
### NNP EW SUMMARY ### TS:       4570 EW          0 EWPERSTEP  0.000E+00
### NNP EW SUMMARY ### TS:       4580 EW          0 EWPERSTEP  0.000E+00
### NNP EW SUMMARY ### TS:       4590 EW          0 EWPERSTEP  0.000E+00
### NNP EW SUMMARY ### TS:       4600 EW          0 EWPERSTEP  0.000E+00
### NNP EW SUMMARY ### TS:       4610 EW          0 EWPERSTEP  0.000E+00
### NNP EW SUMMARY ### TS:       4620 EW          0 EWPERSTEP  0.000E+00
### NNP EW SUMMARY ### TS:       4630 EW          0 EWPERSTEP  0.000E+00
### NNP EW SUMMARY ### TS:       4640 EW          0 EWPERSTEP  0.000E+00
### NNP EW SUMMARY ### TS:       4650 EW          0 EWPERSTEP  0.000E+00
### NNP EW SUMMARY ### TS:       4660 EW          0 EWPERSTEP  0.000E+00
### NNP EW SUMMARY ### TS:       4670 EW          0 EWPERSTEP  0.000E+00
### NNP EW SUMMARY ### TS:       4680 EW          0 EWPERSTEP  0.000E+00
### NNP EW SUMMARY ### TS:       4690 EW          0 EWPERSTEP  0.000E+00
### NNP EW SUMMARY ### TS:       4700 EW          0 EWPERSTEP  0.000E+00
### NNP EW SUMMARY ### TS:       4710 EW          0 EWPERSTEP  0.000E+00
### NNP EW SUMMARY ### TS:       4720 EW          0 EWPERSTEP  0.000E+00
### NNP EW SUMMARY ### TS:       4730 EW          0 EWPERSTEP  0.000E+00
### NNP EW SUMMARY ### TS:       4740 EW          0 EWPERSTEP  0.000E+00
### NNP EW SUMMARY ### TS:       4750 EW          0 EWPERSTEP  0.000E+00
### NNP EW SUMMARY ### TS:       4760 EW          0 EWPERSTEP  0.000E+00
### NNP EW SUMMARY ### TS:       4770 EW          0 EWPERSTEP  0.000E+00
### NNP EW SUMMARY ### TS:       4780 EW          0 EWPERSTEP  0.000E+00
### NNP EW SUMMARY ### TS:       4790 EW          0 EWPERSTEP  0.000E+00
### NNP EW SUMMARY ### TS:       4800 EW          0 EWPERSTEP  0.000E+00
### NNP EW SUMMARY ### TS:       4810 EW          0 EWPERSTEP  0.000E+00
### NNP EW SUMMARY ### TS:       4820 EW          0 EWPERSTEP  0.000E+00
### NNP EW SUMMARY ### TS:       4830 EW          0 EWPERSTEP  0.000E+00
### NNP EW SUMMARY ### TS:       4840 EW          0 EWPERSTEP  0.000E+00
### NNP EW SUMMARY ### TS:       4850 EW          0 EWPERSTEP  0.000E+00
### NNP EW SUMMARY ### TS:       4860 EW          0 EWPERSTEP  0.000E+00
### NNP EW SUMMARY ### TS:       4870 EW          0 EWPERSTEP  0.000E+00
### NNP EW SUMMARY ### TS:       4880 EW          0 EWPERSTEP  0.000E+00
### NNP EW SUMMARY ### TS:       4890 EW          0 EWPERSTEP  0.000E+00
### NNP EW SUMMARY ### TS:       4900 EW          0 EWPERSTEP  0.000E+00
### NNP EW SUMMARY ### TS:       4910 EW          0 EWPERSTEP  0.000E+00
### NNP EW SUMMARY ### TS:       4920 EW          0 EWPERSTEP  0.000E+00
### NNP EW SUMMARY ### TS:       4930 EW          0 EWPERSTEP  0.000E+00
### NNP EW SUMMARY ### TS:       4940 EW          0 EWPERSTEP  0.000E+00
### NNP EW SUMMARY ### TS:       4950 EW          0 EWPERSTEP  0.000E+00
### NNP EW SUMMARY ### TS:       4960 EW          0 EWPERSTEP  0.000E+00
### NNP EW SUMMARY ### TS:       4970 EW          0 EWPERSTEP  0.000E+00
### NNP EW SUMMARY ### TS:       4980 EW          0 EWPERSTEP  0.000E+00
### NNP EW SUMMARY ### TS:       4990 EW          0 EWPERSTEP  0.000E+00
### NNP EW SUMMARY ### TS:       5000 EW          0 EWPERSTEP  0.000E+00
### NNP EW SUMMARY ### TS:       5010 EW          0 EWPERSTEP  0.000E+00
### NNP EW SUMMARY ### TS:       5020 EW          0 EWPERSTEP  0.000E+00
### NNP EW SUMMARY ### TS:       5030 EW          0 EWPERSTEP  0.000E+00
### NNP EW SUMMARY ### TS:       5040 EW          0 EWPERSTEP  0.000E+00
### NNP EW SUMMARY ### TS:       5050 EW          0 EWPERSTEP  0.000E+00
### NNP EW SUMMARY ### TS:       5060 EW          0 EWPERSTEP  0.000E+00
### NNP EW SUMMARY ### TS:       5070 EW          0 EWPERSTEP  0.000E+00
### NNP EW SUMMARY ### TS:       5080 EW          0 EWPERSTEP  0.000E+00
### NNP EW SUMMARY ### TS:       5090 EW          0 EWPERSTEP  0.000E+00
### NNP EW SUMMARY ### TS:       5100 EW          0 EWPERSTEP  0.000E+00
### NNP EW SUMMARY ### TS:       5110 EW          0 EWPERSTEP  0.000E+00
### NNP EW SUMMARY ### TS:       5120 EW          0 EWPERSTEP  0.000E+00
### NNP EW SUMMARY ### TS:       5130 EW          0 EWPERSTEP  0.000E+00
### NNP EW SUMMARY ### TS:       5140 EW          0 EWPERSTEP  0.000E+00
### NNP EW SUMMARY ### TS:       5150 EW          0 EWPERSTEP  0.000E+00
### NNP EW SUMMARY ### TS:       5160 EW          0 EWPERSTEP  0.000E+00
### NNP EW SUMMARY ### TS:       5170 EW          0 EWPERSTEP  0.000E+00
### NNP EW SUMMARY ### TS:       5180 EW          0 EWPERSTEP  0.000E+00
### NNP EW SUMMARY ### TS:       5190 EW          0 EWPERSTEP  0.000E+00
### NNP EW SUMMARY ### TS:       5200 EW          0 EWPERSTEP  0.000E+00
### NNP EW SUMMARY ### TS:       5210 EW          0 EWPERSTEP  0.000E+00
### NNP EW SUMMARY ### TS:       5220 EW          0 EWPERSTEP  0.000E+00
### NNP EW SUMMARY ### TS:       5230 EW          0 EWPERSTEP  0.000E+00
### NNP EW SUMMARY ### TS:       5240 EW          0 EWPERSTEP  0.000E+00
### NNP EW SUMMARY ### TS:       5250 EW          0 EWPERSTEP  0.000E+00
### NNP EW SUMMARY ### TS:       5260 EW          0 EWPERSTEP  0.000E+00
### NNP EW SUMMARY ### TS:       5270 EW          0 EWPERSTEP  0.000E+00
### NNP EW SUMMARY ### TS:       5280 EW          0 EWPERSTEP  0.000E+00
### NNP EW SUMMARY ### TS:       5290 EW          0 EWPERSTEP  0.000E+00
### NNP EW SUMMARY ### TS:       5300 EW          0 EWPERSTEP  0.000E+00
### NNP EW SUMMARY ### TS:       5310 EW          0 EWPERSTEP  0.000E+00
### NNP EW SUMMARY ### TS:       5320 EW          0 EWPERSTEP  0.000E+00
### NNP EW SUMMARY ### TS:       5330 EW          0 EWPERSTEP  0.000E+00
### NNP EW SUMMARY ### TS:       5340 EW          0 EWPERSTEP  0.000E+00
### NNP EW SUMMARY ### TS:       5350 EW          0 EWPERSTEP  0.000E+00
### NNP EW SUMMARY ### TS:       5360 EW          0 EWPERSTEP  0.000E+00
### NNP EW SUMMARY ### TS:       5370 EW          0 EWPERSTEP  0.000E+00
### NNP EW SUMMARY ### TS:       5380 EW          0 EWPERSTEP  0.000E+00
### NNP EW SUMMARY ### TS:       5390 EW          0 EWPERSTEP  0.000E+00
### NNP EW SUMMARY ### TS:       5400 EW          0 EWPERSTEP  0.000E+00
### NNP EW SUMMARY ### TS:       5410 EW          0 EWPERSTEP  0.000E+00
### NNP EW SUMMARY ### TS:       5420 EW          0 EWPERSTEP  0.000E+00
### NNP EW SUMMARY ### TS:       5430 EW          0 EWPERSTEP  0.000E+00
### NNP EW SUMMARY ### TS:       5440 EW          0 EWPERSTEP  0.000E+00
### NNP EW SUMMARY ### TS:       5450 EW          0 EWPERSTEP  0.000E+00
### NNP EW SUMMARY ### TS:       5460 EW          0 EWPERSTEP  0.000E+00
### NNP EW SUMMARY ### TS:       5470 EW          0 EWPERSTEP  0.000E+00
### NNP EW SUMMARY ### TS:       5480 EW          0 EWPERSTEP  0.000E+00
### NNP EW SUMMARY ### TS:       5490 EW          0 EWPERSTEP  0.000E+00
### NNP EW SUMMARY ### TS:       5500 EW          0 EWPERSTEP  0.000E+00
### NNP EW SUMMARY ### TS:       5510 EW          0 EWPERSTEP  0.000E+00
### NNP EW SUMMARY ### TS:       5520 EW          0 EWPERSTEP  0.000E+00
### NNP EW SUMMARY ### TS:       5530 EW          0 EWPERSTEP  0.000E+00
### NNP EW SUMMARY ### TS:       5540 EW          0 EWPERSTEP  0.000E+00
### NNP EW SUMMARY ### TS:       5550 EW          0 EWPERSTEP  0.000E+00
### NNP EW SUMMARY ### TS:       5560 EW          0 EWPERSTEP  0.000E+00
### NNP EW SUMMARY ### TS:       5570 EW          0 EWPERSTEP  0.000E+00
### NNP EW SUMMARY ### TS:       5580 EW          0 EWPERSTEP  0.000E+00
### NNP EW SUMMARY ### TS:       5590 EW          0 EWPERSTEP  0.000E+00
### NNP EW SUMMARY ### TS:       5600 EW          0 EWPERSTEP  0.000E+00
### NNP EW SUMMARY ### TS:       5610 EW          0 EWPERSTEP  0.000E+00
### NNP EW SUMMARY ### TS:       5620 EW          0 EWPERSTEP  0.000E+00
### NNP EW SUMMARY ### TS:       5630 EW          0 EWPERSTEP  0.000E+00
### NNP EW SUMMARY ### TS:       5640 EW          0 EWPERSTEP  0.000E+00
### NNP EW SUMMARY ### TS:       5650 EW          0 EWPERSTEP  0.000E+00
### NNP EW SUMMARY ### TS:       5660 EW          0 EWPERSTEP  0.000E+00
### NNP EW SUMMARY ### TS:       5670 EW          0 EWPERSTEP  0.000E+00
### NNP EW SUMMARY ### TS:       5680 EW          0 EWPERSTEP  0.000E+00
### NNP EW SUMMARY ### TS:       5690 EW          0 EWPERSTEP  0.000E+00
### NNP EW SUMMARY ### TS:       5700 EW          0 EWPERSTEP  0.000E+00
### NNP EW SUMMARY ### TS:       5710 EW          0 EWPERSTEP  0.000E+00
### NNP EW SUMMARY ### TS:       5720 EW          0 EWPERSTEP  0.000E+00
### NNP EW SUMMARY ### TS:       5730 EW          0 EWPERSTEP  0.000E+00
### NNP EW SUMMARY ### TS:       5740 EW          0 EWPERSTEP  0.000E+00
### NNP EW SUMMARY ### TS:       5750 EW          0 EWPERSTEP  0.000E+00
### NNP EW SUMMARY ### TS:       5760 EW          0 EWPERSTEP  0.000E+00
### NNP EW SUMMARY ### TS:       5770 EW          0 EWPERSTEP  0.000E+00
### NNP EW SUMMARY ### TS:       5780 EW          0 EWPERSTEP  0.000E+00
### NNP EW SUMMARY ### TS:       5790 EW          0 EWPERSTEP  0.000E+00
### NNP EW SUMMARY ### TS:       5800 EW          0 EWPERSTEP  0.000E+00
### NNP EW SUMMARY ### TS:       5810 EW          0 EWPERSTEP  0.000E+00
### NNP EW SUMMARY ### TS:       5820 EW          0 EWPERSTEP  0.000E+00
### NNP EW SUMMARY ### TS:       5830 EW          0 EWPERSTEP  0.000E+00
### NNP EW SUMMARY ### TS:       5840 EW          0 EWPERSTEP  0.000E+00
### NNP EW SUMMARY ### TS:       5850 EW          0 EWPERSTEP  0.000E+00
### NNP EW SUMMARY ### TS:       5860 EW          0 EWPERSTEP  0.000E+00
### NNP EW SUMMARY ### TS:       5870 EW          0 EWPERSTEP  0.000E+00
### NNP EW SUMMARY ### TS:       5880 EW          0 EWPERSTEP  0.000E+00
### NNP EW SUMMARY ### TS:       5890 EW          0 EWPERSTEP  0.000E+00
### NNP EW SUMMARY ### TS:       5900 EW          0 EWPERSTEP  0.000E+00
### NNP EW SUMMARY ### TS:       5910 EW          0 EWPERSTEP  0.000E+00
### NNP EW SUMMARY ### TS:       5920 EW          0 EWPERSTEP  0.000E+00
### NNP EW SUMMARY ### TS:       5930 EW          0 EWPERSTEP  0.000E+00
### NNP EW SUMMARY ### TS:       5940 EW          0 EWPERSTEP  0.000E+00
### NNP EW SUMMARY ### TS:       5950 EW          0 EWPERSTEP  0.000E+00
### NNP EW SUMMARY ### TS:       5960 EW          0 EWPERSTEP  0.000E+00
### NNP EW SUMMARY ### TS:       5970 EW          0 EWPERSTEP  0.000E+00
### NNP EW SUMMARY ### TS:       5980 EW          0 EWPERSTEP  0.000E+00
### NNP EW SUMMARY ### TS:       5990 EW          0 EWPERSTEP  0.000E+00
### NNP EW SUMMARY ### TS:       6000 EW          0 EWPERSTEP  0.000E+00
### NNP EW SUMMARY ### TS:       6010 EW          0 EWPERSTEP  0.000E+00
### NNP EW SUMMARY ### TS:       6020 EW          0 EWPERSTEP  0.000E+00
### NNP EW SUMMARY ### TS:       6030 EW          0 EWPERSTEP  0.000E+00
### NNP EW SUMMARY ### TS:       6040 EW          0 EWPERSTEP  0.000E+00
### NNP EW SUMMARY ### TS:       6050 EW          0 EWPERSTEP  0.000E+00
### NNP EW SUMMARY ### TS:       6060 EW          0 EWPERSTEP  0.000E+00
### NNP EW SUMMARY ### TS:       6070 EW          0 EWPERSTEP  0.000E+00
### NNP EW SUMMARY ### TS:       6080 EW          0 EWPERSTEP  0.000E+00
### NNP EW SUMMARY ### TS:       6090 EW          0 EWPERSTEP  0.000E+00
### NNP EW SUMMARY ### TS:       6100 EW          0 EWPERSTEP  0.000E+00
### NNP EW SUMMARY ### TS:       6110 EW          0 EWPERSTEP  0.000E+00
### NNP EW SUMMARY ### TS:       6120 EW          0 EWPERSTEP  0.000E+00
### NNP EW SUMMARY ### TS:       6130 EW          0 EWPERSTEP  0.000E+00
### NNP EW SUMMARY ### TS:       6140 EW          0 EWPERSTEP  0.000E+00
### NNP EW SUMMARY ### TS:       6150 EW          0 EWPERSTEP  0.000E+00
### NNP EW SUMMARY ### TS:       6160 EW          0 EWPERSTEP  0.000E+00
### NNP EW SUMMARY ### TS:       6170 EW          0 EWPERSTEP  0.000E+00
### NNP EW SUMMARY ### TS:       6180 EW          0 EWPERSTEP  0.000E+00
### NNP EW SUMMARY ### TS:       6190 EW          0 EWPERSTEP  0.000E+00
### NNP EW SUMMARY ### TS:       6200 EW          0 EWPERSTEP  0.000E+00
### NNP EW SUMMARY ### TS:       6210 EW          0 EWPERSTEP  0.000E+00
### NNP EW SUMMARY ### TS:       6220 EW          0 EWPERSTEP  0.000E+00
### NNP EW SUMMARY ### TS:       6230 EW          0 EWPERSTEP  0.000E+00
### NNP EW SUMMARY ### TS:       6240 EW          0 EWPERSTEP  0.000E+00
### NNP EW SUMMARY ### TS:       6250 EW          0 EWPERSTEP  0.000E+00
### NNP EW SUMMARY ### TS:       6260 EW          0 EWPERSTEP  0.000E+00
### NNP EW SUMMARY ### TS:       6270 EW          0 EWPERSTEP  0.000E+00
### NNP EW SUMMARY ### TS:       6280 EW          0 EWPERSTEP  0.000E+00
### NNP EW SUMMARY ### TS:       6290 EW          0 EWPERSTEP  0.000E+00
### NNP EW SUMMARY ### TS:       6300 EW          0 EWPERSTEP  0.000E+00
### NNP EW SUMMARY ### TS:       6310 EW          0 EWPERSTEP  0.000E+00
### NNP EW SUMMARY ### TS:       6320 EW          0 EWPERSTEP  0.000E+00
### NNP EW SUMMARY ### TS:       6330 EW          0 EWPERSTEP  0.000E+00
### NNP EW SUMMARY ### TS:       6340 EW          0 EWPERSTEP  0.000E+00
### NNP EW SUMMARY ### TS:       6350 EW          0 EWPERSTEP  0.000E+00
### NNP EW SUMMARY ### TS:       6360 EW          0 EWPERSTEP  0.000E+00
### NNP EW SUMMARY ### TS:       6370 EW          0 EWPERSTEP  0.000E+00
### NNP EW SUMMARY ### TS:       6380 EW          0 EWPERSTEP  0.000E+00
### NNP EW SUMMARY ### TS:       6390 EW          0 EWPERSTEP  0.000E+00
### NNP EW SUMMARY ### TS:       6400 EW          0 EWPERSTEP  0.000E+00
### NNP EW SUMMARY ### TS:       6410 EW          0 EWPERSTEP  0.000E+00
### NNP EW SUMMARY ### TS:       6420 EW          0 EWPERSTEP  0.000E+00
### NNP EW SUMMARY ### TS:       6430 EW          0 EWPERSTEP  0.000E+00
### NNP EW SUMMARY ### TS:       6440 EW          0 EWPERSTEP  0.000E+00
### NNP EW SUMMARY ### TS:       6450 EW          0 EWPERSTEP  0.000E+00
### NNP EW SUMMARY ### TS:       6460 EW          0 EWPERSTEP  0.000E+00
### NNP EW SUMMARY ### TS:       6470 EW          0 EWPERSTEP  0.000E+00
### NNP EW SUMMARY ### TS:       6480 EW          0 EWPERSTEP  0.000E+00
### NNP EW SUMMARY ### TS:       6490 EW          0 EWPERSTEP  0.000E+00
### NNP EW SUMMARY ### TS:       6500 EW          0 EWPERSTEP  0.000E+00
### NNP EW SUMMARY ### TS:       6510 EW          0 EWPERSTEP  0.000E+00
### NNP EW SUMMARY ### TS:       6520 EW          0 EWPERSTEP  0.000E+00
### NNP EW SUMMARY ### TS:       6530 EW          0 EWPERSTEP  0.000E+00
### NNP EW SUMMARY ### TS:       6540 EW          0 EWPERSTEP  0.000E+00
### NNP EW SUMMARY ### TS:       6550 EW          0 EWPERSTEP  0.000E+00
### NNP EW SUMMARY ### TS:       6560 EW          0 EWPERSTEP  0.000E+00
### NNP EW SUMMARY ### TS:       6570 EW          0 EWPERSTEP  0.000E+00
### NNP EW SUMMARY ### TS:       6580 EW          0 EWPERSTEP  0.000E+00
### NNP EW SUMMARY ### TS:       6590 EW          0 EWPERSTEP  0.000E+00
### NNP EW SUMMARY ### TS:       6600 EW          0 EWPERSTEP  0.000E+00
### NNP EW SUMMARY ### TS:       6610 EW          0 EWPERSTEP  0.000E+00
### NNP EW SUMMARY ### TS:       6620 EW          0 EWPERSTEP  0.000E+00
### NNP EW SUMMARY ### TS:       6630 EW          0 EWPERSTEP  0.000E+00
### NNP EW SUMMARY ### TS:       6640 EW          0 EWPERSTEP  0.000E+00
### NNP EW SUMMARY ### TS:       6650 EW          0 EWPERSTEP  0.000E+00
### NNP EW SUMMARY ### TS:       6660 EW          0 EWPERSTEP  0.000E+00
### NNP EW SUMMARY ### TS:       6670 EW          0 EWPERSTEP  0.000E+00
### NNP EW SUMMARY ### TS:       6680 EW          0 EWPERSTEP  0.000E+00
### NNP EW SUMMARY ### TS:       6690 EW          0 EWPERSTEP  0.000E+00
### NNP EW SUMMARY ### TS:       6700 EW          0 EWPERSTEP  0.000E+00
### NNP EW SUMMARY ### TS:       6710 EW          0 EWPERSTEP  0.000E+00
### NNP EW SUMMARY ### TS:       6720 EW          0 EWPERSTEP  0.000E+00
### NNP EW SUMMARY ### TS:       6730 EW          0 EWPERSTEP  0.000E+00
### NNP EW SUMMARY ### TS:       6740 EW          0 EWPERSTEP  0.000E+00
### NNP EW SUMMARY ### TS:       6750 EW          0 EWPERSTEP  0.000E+00
### NNP EW SUMMARY ### TS:       6760 EW          0 EWPERSTEP  0.000E+00
### NNP EW SUMMARY ### TS:       6770 EW          0 EWPERSTEP  0.000E+00
### NNP EW SUMMARY ### TS:       6780 EW          0 EWPERSTEP  0.000E+00
### NNP EW SUMMARY ### TS:       6790 EW          0 EWPERSTEP  0.000E+00
### NNP EW SUMMARY ### TS:       6800 EW          0 EWPERSTEP  0.000E+00
### NNP EW SUMMARY ### TS:       6810 EW          0 EWPERSTEP  0.000E+00
### NNP EW SUMMARY ### TS:       6820 EW          0 EWPERSTEP  0.000E+00
### NNP EW SUMMARY ### TS:       6830 EW          0 EWPERSTEP  0.000E+00
### NNP EW SUMMARY ### TS:       6840 EW          0 EWPERSTEP  0.000E+00
### NNP EW SUMMARY ### TS:       6850 EW          0 EWPERSTEP  0.000E+00
### NNP EW SUMMARY ### TS:       6860 EW          0 EWPERSTEP  0.000E+00
### NNP EW SUMMARY ### TS:       6870 EW          0 EWPERSTEP  0.000E+00
### NNP EW SUMMARY ### TS:       6880 EW          0 EWPERSTEP  0.000E+00
### NNP EW SUMMARY ### TS:       6890 EW          0 EWPERSTEP  0.000E+00
### NNP EW SUMMARY ### TS:       6900 EW          0 EWPERSTEP  0.000E+00
### NNP EW SUMMARY ### TS:       6910 EW          0 EWPERSTEP  0.000E+00
### NNP EW SUMMARY ### TS:       6920 EW          0 EWPERSTEP  0.000E+00
### NNP EW SUMMARY ### TS:       6930 EW          0 EWPERSTEP  0.000E+00
### NNP EW SUMMARY ### TS:       6940 EW          0 EWPERSTEP  0.000E+00
### NNP EW SUMMARY ### TS:       6950 EW          0 EWPERSTEP  0.000E+00
### NNP EW SUMMARY ### TS:       6960 EW          0 EWPERSTEP  0.000E+00
### NNP EW SUMMARY ### TS:       6970 EW          0 EWPERSTEP  0.000E+00
### NNP EW SUMMARY ### TS:       6980 EW          0 EWPERSTEP  0.000E+00
### NNP EW SUMMARY ### TS:       6990 EW          0 EWPERSTEP  0.000E+00
### NNP EW SUMMARY ### TS:       7000 EW          0 EWPERSTEP  0.000E+00
### NNP EW SUMMARY ### TS:       7010 EW          0 EWPERSTEP  0.000E+00
### NNP EW SUMMARY ### TS:       7020 EW          0 EWPERSTEP  0.000E+00
### NNP EW SUMMARY ### TS:       7030 EW          0 EWPERSTEP  0.000E+00
### NNP EW SUMMARY ### TS:       7040 EW          0 EWPERSTEP  0.000E+00
### NNP EW SUMMARY ### TS:       7050 EW          0 EWPERSTEP  0.000E+00
### NNP EW SUMMARY ### TS:       7060 EW          0 EWPERSTEP  0.000E+00
### NNP EW SUMMARY ### TS:       7070 EW          0 EWPERSTEP  0.000E+00
### NNP EW SUMMARY ### TS:       7080 EW          0 EWPERSTEP  0.000E+00
### NNP EW SUMMARY ### TS:       7090 EW          0 EWPERSTEP  0.000E+00
### NNP EW SUMMARY ### TS:       7100 EW          0 EWPERSTEP  0.000E+00
### NNP EW SUMMARY ### TS:       7110 EW          0 EWPERSTEP  0.000E+00
### NNP EW SUMMARY ### TS:       7120 EW          0 EWPERSTEP  0.000E+00
### NNP EW SUMMARY ### TS:       7130 EW          0 EWPERSTEP  0.000E+00
### NNP EW SUMMARY ### TS:       7140 EW          0 EWPERSTEP  0.000E+00
### NNP EW SUMMARY ### TS:       7150 EW          0 EWPERSTEP  0.000E+00
### NNP EW SUMMARY ### TS:       7160 EW          0 EWPERSTEP  0.000E+00
### NNP EW SUMMARY ### TS:       7170 EW          0 EWPERSTEP  0.000E+00
### NNP EW SUMMARY ### TS:       7180 EW          0 EWPERSTEP  0.000E+00
### NNP EW SUMMARY ### TS:       7190 EW          0 EWPERSTEP  0.000E+00
### NNP EW SUMMARY ### TS:       7200 EW          0 EWPERSTEP  0.000E+00
### NNP EW SUMMARY ### TS:       7210 EW          0 EWPERSTEP  0.000E+00
### NNP EW SUMMARY ### TS:       7220 EW          0 EWPERSTEP  0.000E+00
### NNP EW SUMMARY ### TS:       7230 EW          0 EWPERSTEP  0.000E+00
### NNP EW SUMMARY ### TS:       7240 EW          0 EWPERSTEP  0.000E+00
### NNP EW SUMMARY ### TS:       7250 EW          0 EWPERSTEP  0.000E+00
### NNP EW SUMMARY ### TS:       7260 EW          0 EWPERSTEP  0.000E+00
### NNP EW SUMMARY ### TS:       7270 EW          0 EWPERSTEP  0.000E+00
### NNP EW SUMMARY ### TS:       7280 EW          0 EWPERSTEP  0.000E+00
### NNP EW SUMMARY ### TS:       7290 EW          0 EWPERSTEP  0.000E+00
### NNP EW SUMMARY ### TS:       7300 EW          0 EWPERSTEP  0.000E+00
### NNP EW SUMMARY ### TS:       7310 EW          0 EWPERSTEP  0.000E+00
### NNP EW SUMMARY ### TS:       7320 EW          0 EWPERSTEP  0.000E+00
### NNP EW SUMMARY ### TS:       7330 EW          0 EWPERSTEP  0.000E+00
### NNP EW SUMMARY ### TS:       7340 EW          0 EWPERSTEP  0.000E+00
### NNP EW SUMMARY ### TS:       7350 EW          0 EWPERSTEP  0.000E+00
### NNP EW SUMMARY ### TS:       7360 EW          0 EWPERSTEP  0.000E+00
### NNP EW SUMMARY ### TS:       7370 EW          0 EWPERSTEP  0.000E+00
### NNP EW SUMMARY ### TS:       7380 EW          0 EWPERSTEP  0.000E+00
### NNP EW SUMMARY ### TS:       7390 EW          0 EWPERSTEP  0.000E+00
### NNP EW SUMMARY ### TS:       7400 EW          0 EWPERSTEP  0.000E+00
### NNP EW SUMMARY ### TS:       7410 EW          0 EWPERSTEP  0.000E+00
### NNP EW SUMMARY ### TS:       7420 EW          0 EWPERSTEP  0.000E+00
### NNP EW SUMMARY ### TS:       7430 EW          0 EWPERSTEP  0.000E+00
### NNP EW SUMMARY ### TS:       7440 EW          0 EWPERSTEP  0.000E+00
### NNP EW SUMMARY ### TS:       7450 EW          0 EWPERSTEP  0.000E+00
### NNP EW SUMMARY ### TS:       7460 EW          0 EWPERSTEP  0.000E+00
### NNP EW SUMMARY ### TS:       7470 EW          0 EWPERSTEP  0.000E+00
### NNP EW SUMMARY ### TS:       7480 EW          0 EWPERSTEP  0.000E+00
### NNP EW SUMMARY ### TS:       7490 EW          0 EWPERSTEP  0.000E+00
### NNP EW SUMMARY ### TS:       7500 EW          0 EWPERSTEP  0.000E+00
### NNP EW SUMMARY ### TS:       7510 EW          0 EWPERSTEP  0.000E+00
### NNP EW SUMMARY ### TS:       7520 EW          0 EWPERSTEP  0.000E+00
### NNP EW SUMMARY ### TS:       7530 EW          0 EWPERSTEP  0.000E+00
### NNP EW SUMMARY ### TS:       7540 EW          0 EWPERSTEP  0.000E+00
### NNP EW SUMMARY ### TS:       7550 EW          0 EWPERSTEP  0.000E+00
### NNP EW SUMMARY ### TS:       7560 EW          0 EWPERSTEP  0.000E+00
### NNP EW SUMMARY ### TS:       7570 EW          0 EWPERSTEP  0.000E+00
### NNP EW SUMMARY ### TS:       7580 EW          0 EWPERSTEP  0.000E+00
### NNP EW SUMMARY ### TS:       7590 EW          0 EWPERSTEP  0.000E+00
### NNP EW SUMMARY ### TS:       7600 EW          0 EWPERSTEP  0.000E+00
### NNP EW SUMMARY ### TS:       7610 EW          0 EWPERSTEP  0.000E+00
### NNP EW SUMMARY ### TS:       7620 EW          0 EWPERSTEP  0.000E+00
### NNP EW SUMMARY ### TS:       7630 EW          0 EWPERSTEP  0.000E+00
### NNP EW SUMMARY ### TS:       7640 EW          0 EWPERSTEP  0.000E+00
### NNP EW SUMMARY ### TS:       7650 EW          0 EWPERSTEP  0.000E+00
### NNP EW SUMMARY ### TS:       7660 EW          0 EWPERSTEP  0.000E+00
### NNP EW SUMMARY ### TS:       7670 EW          0 EWPERSTEP  0.000E+00
### NNP EW SUMMARY ### TS:       7680 EW          0 EWPERSTEP  0.000E+00
### NNP EW SUMMARY ### TS:       7690 EW          0 EWPERSTEP  0.000E+00
### NNP EW SUMMARY ### TS:       7700 EW          0 EWPERSTEP  0.000E+00
### NNP EW SUMMARY ### TS:       7710 EW          0 EWPERSTEP  0.000E+00
### NNP EW SUMMARY ### TS:       7720 EW          0 EWPERSTEP  0.000E+00
### NNP EW SUMMARY ### TS:       7730 EW          0 EWPERSTEP  0.000E+00
### NNP EW SUMMARY ### TS:       7740 EW          0 EWPERSTEP  0.000E+00
### NNP EW SUMMARY ### TS:       7750 EW          0 EWPERSTEP  0.000E+00
### NNP EW SUMMARY ### TS:       7760 EW          0 EWPERSTEP  0.000E+00
### NNP EW SUMMARY ### TS:       7770 EW          0 EWPERSTEP  0.000E+00
### NNP EW SUMMARY ### TS:       7780 EW          0 EWPERSTEP  0.000E+00
### NNP EW SUMMARY ### TS:       7790 EW          0 EWPERSTEP  0.000E+00
### NNP EW SUMMARY ### TS:       7800 EW          0 EWPERSTEP  0.000E+00
### NNP EW SUMMARY ### TS:       7810 EW          0 EWPERSTEP  0.000E+00
### NNP EW SUMMARY ### TS:       7820 EW          0 EWPERSTEP  0.000E+00
### NNP EW SUMMARY ### TS:       7830 EW          0 EWPERSTEP  0.000E+00
### NNP EW SUMMARY ### TS:       7840 EW          0 EWPERSTEP  0.000E+00
### NNP EW SUMMARY ### TS:       7850 EW          0 EWPERSTEP  0.000E+00
### NNP EW SUMMARY ### TS:       7860 EW          0 EWPERSTEP  0.000E+00
### NNP EW SUMMARY ### TS:       7870 EW          0 EWPERSTEP  0.000E+00
### NNP EW SUMMARY ### TS:       7880 EW          0 EWPERSTEP  0.000E+00
### NNP EW SUMMARY ### TS:       7890 EW          0 EWPERSTEP  0.000E+00
### NNP EW SUMMARY ### TS:       7900 EW          0 EWPERSTEP  0.000E+00
### NNP EW SUMMARY ### TS:       7910 EW          0 EWPERSTEP  0.000E+00
### NNP EW SUMMARY ### TS:       7920 EW          0 EWPERSTEP  0.000E+00
### NNP EW SUMMARY ### TS:       7930 EW          0 EWPERSTEP  0.000E+00
### NNP EW SUMMARY ### TS:       7940 EW          0 EWPERSTEP  0.000E+00
### NNP EW SUMMARY ### TS:       7950 EW          0 EWPERSTEP  0.000E+00
### NNP EW SUMMARY ### TS:       7960 EW          0 EWPERSTEP  0.000E+00
### NNP EW SUMMARY ### TS:       7970 EW          0 EWPERSTEP  0.000E+00
### NNP EW SUMMARY ### TS:       7980 EW          0 EWPERSTEP  0.000E+00
### NNP EW SUMMARY ### TS:       7990 EW          0 EWPERSTEP  0.000E+00
### NNP EW SUMMARY ### TS:       8000 EW          0 EWPERSTEP  0.000E+00
### NNP EW SUMMARY ### TS:       8010 EW          0 EWPERSTEP  0.000E+00
### NNP EW SUMMARY ### TS:       8020 EW          0 EWPERSTEP  0.000E+00
### NNP EW SUMMARY ### TS:       8030 EW          0 EWPERSTEP  0.000E+00
### NNP EW SUMMARY ### TS:       8040 EW          0 EWPERSTEP  0.000E+00
### NNP EW SUMMARY ### TS:       8050 EW          0 EWPERSTEP  0.000E+00
### NNP EW SUMMARY ### TS:       8060 EW          0 EWPERSTEP  0.000E+00
### NNP EW SUMMARY ### TS:       8070 EW          0 EWPERSTEP  0.000E+00
### NNP EW SUMMARY ### TS:       8080 EW          0 EWPERSTEP  0.000E+00
### NNP EW SUMMARY ### TS:       8090 EW          0 EWPERSTEP  0.000E+00
### NNP EW SUMMARY ### TS:       8100 EW          0 EWPERSTEP  0.000E+00
### NNP EW SUMMARY ### TS:       8110 EW          0 EWPERSTEP  0.000E+00
### NNP EW SUMMARY ### TS:       8120 EW          0 EWPERSTEP  0.000E+00
### NNP EW SUMMARY ### TS:       8130 EW          0 EWPERSTEP  0.000E+00
### NNP EW SUMMARY ### TS:       8140 EW          0 EWPERSTEP  0.000E+00
### NNP EW SUMMARY ### TS:       8150 EW          0 EWPERSTEP  0.000E+00
### NNP EW SUMMARY ### TS:       8160 EW          0 EWPERSTEP  0.000E+00
### NNP EW SUMMARY ### TS:       8170 EW          0 EWPERSTEP  0.000E+00
### NNP EW SUMMARY ### TS:       8180 EW          0 EWPERSTEP  0.000E+00
### NNP EW SUMMARY ### TS:       8190 EW          0 EWPERSTEP  0.000E+00
### NNP EW SUMMARY ### TS:       8200 EW          0 EWPERSTEP  0.000E+00
### NNP EW SUMMARY ### TS:       8210 EW          0 EWPERSTEP  0.000E+00
### NNP EW SUMMARY ### TS:       8220 EW          0 EWPERSTEP  0.000E+00
### NNP EW SUMMARY ### TS:       8230 EW          0 EWPERSTEP  0.000E+00
### NNP EW SUMMARY ### TS:       8240 EW          0 EWPERSTEP  0.000E+00
### NNP EW SUMMARY ### TS:       8250 EW          0 EWPERSTEP  0.000E+00
### NNP EW SUMMARY ### TS:       8260 EW          0 EWPERSTEP  0.000E+00
### NNP EW SUMMARY ### TS:       8270 EW          0 EWPERSTEP  0.000E+00
### NNP EW SUMMARY ### TS:       8280 EW          0 EWPERSTEP  0.000E+00
### NNP EW SUMMARY ### TS:       8290 EW          0 EWPERSTEP  0.000E+00
### NNP EW SUMMARY ### TS:       8300 EW          0 EWPERSTEP  0.000E+00
### NNP EW SUMMARY ### TS:       8310 EW          0 EWPERSTEP  0.000E+00
### NNP EW SUMMARY ### TS:       8320 EW          0 EWPERSTEP  0.000E+00
### NNP EW SUMMARY ### TS:       8330 EW          0 EWPERSTEP  0.000E+00
### NNP EW SUMMARY ### TS:       8340 EW          0 EWPERSTEP  0.000E+00
### NNP EW SUMMARY ### TS:       8350 EW          0 EWPERSTEP  0.000E+00
### NNP EW SUMMARY ### TS:       8360 EW          0 EWPERSTEP  0.000E+00
### NNP EW SUMMARY ### TS:       8370 EW          0 EWPERSTEP  0.000E+00
### NNP EW SUMMARY ### TS:       8380 EW          0 EWPERSTEP  0.000E+00
### NNP EW SUMMARY ### TS:       8390 EW          0 EWPERSTEP  0.000E+00
### NNP EW SUMMARY ### TS:       8400 EW          0 EWPERSTEP  0.000E+00
### NNP EW SUMMARY ### TS:       8410 EW          0 EWPERSTEP  0.000E+00
### NNP EW SUMMARY ### TS:       8420 EW          0 EWPERSTEP  0.000E+00
### NNP EW SUMMARY ### TS:       8430 EW          0 EWPERSTEP  0.000E+00
### NNP EW SUMMARY ### TS:       8440 EW          0 EWPERSTEP  0.000E+00
### NNP EW SUMMARY ### TS:       8450 EW          0 EWPERSTEP  0.000E+00
### NNP EW SUMMARY ### TS:       8460 EW          0 EWPERSTEP  0.000E+00
### NNP EW SUMMARY ### TS:       8470 EW          0 EWPERSTEP  0.000E+00
### NNP EW SUMMARY ### TS:       8480 EW          0 EWPERSTEP  0.000E+00
### NNP EW SUMMARY ### TS:       8490 EW          0 EWPERSTEP  0.000E+00
### NNP EW SUMMARY ### TS:       8500 EW          0 EWPERSTEP  0.000E+00
### NNP EW SUMMARY ### TS:       8510 EW          0 EWPERSTEP  0.000E+00
### NNP EW SUMMARY ### TS:       8520 EW          0 EWPERSTEP  0.000E+00
### NNP EW SUMMARY ### TS:       8530 EW          0 EWPERSTEP  0.000E+00
### NNP EW SUMMARY ### TS:       8540 EW          0 EWPERSTEP  0.000E+00
### NNP EW SUMMARY ### TS:       8550 EW          0 EWPERSTEP  0.000E+00
### NNP EW SUMMARY ### TS:       8560 EW          0 EWPERSTEP  0.000E+00
### NNP EW SUMMARY ### TS:       8570 EW          0 EWPERSTEP  0.000E+00
### NNP EW SUMMARY ### TS:       8580 EW          0 EWPERSTEP  0.000E+00
### NNP EW SUMMARY ### TS:       8590 EW          0 EWPERSTEP  0.000E+00
### NNP EW SUMMARY ### TS:       8600 EW          0 EWPERSTEP  0.000E+00
### NNP EW SUMMARY ### TS:       8610 EW          0 EWPERSTEP  0.000E+00
### NNP EW SUMMARY ### TS:       8620 EW          0 EWPERSTEP  0.000E+00
### NNP EW SUMMARY ### TS:       8630 EW          0 EWPERSTEP  0.000E+00
### NNP EW SUMMARY ### TS:       8640 EW          0 EWPERSTEP  0.000E+00
### NNP EW SUMMARY ### TS:       8650 EW          0 EWPERSTEP  0.000E+00
### NNP EW SUMMARY ### TS:       8660 EW          0 EWPERSTEP  0.000E+00
### NNP EW SUMMARY ### TS:       8670 EW          0 EWPERSTEP  0.000E+00
### NNP EW SUMMARY ### TS:       8680 EW          0 EWPERSTEP  0.000E+00
### NNP EW SUMMARY ### TS:       8690 EW          0 EWPERSTEP  0.000E+00
### NNP EW SUMMARY ### TS:       8700 EW          0 EWPERSTEP  0.000E+00
### NNP EW SUMMARY ### TS:       8710 EW          0 EWPERSTEP  0.000E+00
### NNP EW SUMMARY ### TS:       8720 EW          0 EWPERSTEP  0.000E+00
### NNP EW SUMMARY ### TS:       8730 EW          0 EWPERSTEP  0.000E+00
### NNP EW SUMMARY ### TS:       8740 EW          0 EWPERSTEP  0.000E+00
### NNP EW SUMMARY ### TS:       8750 EW          0 EWPERSTEP  0.000E+00
### NNP EW SUMMARY ### TS:       8760 EW          0 EWPERSTEP  0.000E+00
### NNP EW SUMMARY ### TS:       8770 EW          0 EWPERSTEP  0.000E+00
### NNP EW SUMMARY ### TS:       8780 EW          0 EWPERSTEP  0.000E+00
### NNP EW SUMMARY ### TS:       8790 EW          0 EWPERSTEP  0.000E+00
### NNP EW SUMMARY ### TS:       8800 EW          0 EWPERSTEP  0.000E+00
### NNP EW SUMMARY ### TS:       8810 EW          0 EWPERSTEP  0.000E+00
### NNP EW SUMMARY ### TS:       8820 EW          0 EWPERSTEP  0.000E+00
### NNP EW SUMMARY ### TS:       8830 EW          0 EWPERSTEP  0.000E+00
### NNP EW SUMMARY ### TS:       8840 EW          0 EWPERSTEP  0.000E+00
### NNP EW SUMMARY ### TS:       8850 EW          0 EWPERSTEP  0.000E+00
### NNP EW SUMMARY ### TS:       8860 EW          0 EWPERSTEP  0.000E+00
### NNP EW SUMMARY ### TS:       8870 EW          0 EWPERSTEP  0.000E+00
### NNP EW SUMMARY ### TS:       8880 EW          0 EWPERSTEP  0.000E+00
### NNP EW SUMMARY ### TS:       8890 EW          0 EWPERSTEP  0.000E+00
### NNP EW SUMMARY ### TS:       8900 EW          0 EWPERSTEP  0.000E+00
### NNP EW SUMMARY ### TS:       8910 EW          0 EWPERSTEP  0.000E+00
### NNP EW SUMMARY ### TS:       8920 EW          0 EWPERSTEP  0.000E+00
### NNP EW SUMMARY ### TS:       8930 EW          0 EWPERSTEP  0.000E+00
### NNP EW SUMMARY ### TS:       8940 EW          0 EWPERSTEP  0.000E+00
### NNP EW SUMMARY ### TS:       8950 EW          0 EWPERSTEP  0.000E+00
### NNP EW SUMMARY ### TS:       8960 EW          0 EWPERSTEP  0.000E+00
### NNP EW SUMMARY ### TS:       8970 EW          0 EWPERSTEP  0.000E+00
### NNP EW SUMMARY ### TS:       8980 EW          0 EWPERSTEP  0.000E+00
### NNP EW SUMMARY ### TS:       8990 EW          0 EWPERSTEP  0.000E+00
### NNP EW SUMMARY ### TS:       9000 EW          0 EWPERSTEP  0.000E+00
### NNP EW SUMMARY ### TS:       9010 EW          0 EWPERSTEP  0.000E+00
### NNP EW SUMMARY ### TS:       9020 EW          0 EWPERSTEP  0.000E+00
### NNP EW SUMMARY ### TS:       9030 EW          0 EWPERSTEP  0.000E+00
### NNP EW SUMMARY ### TS:       9040 EW          0 EWPERSTEP  0.000E+00
### NNP EW SUMMARY ### TS:       9050 EW          0 EWPERSTEP  0.000E+00
### NNP EW SUMMARY ### TS:       9060 EW          0 EWPERSTEP  0.000E+00
### NNP EW SUMMARY ### TS:       9070 EW          0 EWPERSTEP  0.000E+00
### NNP EW SUMMARY ### TS:       9080 EW          0 EWPERSTEP  0.000E+00
### NNP EW SUMMARY ### TS:       9090 EW          0 EWPERSTEP  0.000E+00
### NNP EW SUMMARY ### TS:       9100 EW          0 EWPERSTEP  0.000E+00
### NNP EW SUMMARY ### TS:       9110 EW          0 EWPERSTEP  0.000E+00
### NNP EW SUMMARY ### TS:       9120 EW          0 EWPERSTEP  0.000E+00
### NNP EW SUMMARY ### TS:       9130 EW          0 EWPERSTEP  0.000E+00
### NNP EW SUMMARY ### TS:       9140 EW          0 EWPERSTEP  0.000E+00
### NNP EW SUMMARY ### TS:       9150 EW          0 EWPERSTEP  0.000E+00
### NNP EW SUMMARY ### TS:       9160 EW          0 EWPERSTEP  0.000E+00
### NNP EW SUMMARY ### TS:       9170 EW          0 EWPERSTEP  0.000E+00
### NNP EW SUMMARY ### TS:       9180 EW          0 EWPERSTEP  0.000E+00
### NNP EW SUMMARY ### TS:       9190 EW          0 EWPERSTEP  0.000E+00
### NNP EW SUMMARY ### TS:       9200 EW          0 EWPERSTEP  0.000E+00
### NNP EW SUMMARY ### TS:       9210 EW          0 EWPERSTEP  0.000E+00
### NNP EW SUMMARY ### TS:       9220 EW          0 EWPERSTEP  0.000E+00
### NNP EW SUMMARY ### TS:       9230 EW          0 EWPERSTEP  0.000E+00
### NNP EW SUMMARY ### TS:       9240 EW          0 EWPERSTEP  0.000E+00
### NNP EW SUMMARY ### TS:       9250 EW          0 EWPERSTEP  0.000E+00
### NNP EW SUMMARY ### TS:       9260 EW          0 EWPERSTEP  0.000E+00
### NNP EW SUMMARY ### TS:       9270 EW          0 EWPERSTEP  0.000E+00
### NNP EW SUMMARY ### TS:       9280 EW          0 EWPERSTEP  0.000E+00
### NNP EW SUMMARY ### TS:       9290 EW          0 EWPERSTEP  0.000E+00
### NNP EW SUMMARY ### TS:       9300 EW          0 EWPERSTEP  0.000E+00
### NNP EW SUMMARY ### TS:       9310 EW          0 EWPERSTEP  0.000E+00
### NNP EW SUMMARY ### TS:       9320 EW          0 EWPERSTEP  0.000E+00
### NNP EW SUMMARY ### TS:       9330 EW          0 EWPERSTEP  0.000E+00
### NNP EW SUMMARY ### TS:       9340 EW          0 EWPERSTEP  0.000E+00
### NNP EW SUMMARY ### TS:       9350 EW          0 EWPERSTEP  0.000E+00
### NNP EW SUMMARY ### TS:       9360 EW          0 EWPERSTEP  0.000E+00
### NNP EW SUMMARY ### TS:       9370 EW          0 EWPERSTEP  0.000E+00
### NNP EW SUMMARY ### TS:       9380 EW          0 EWPERSTEP  0.000E+00
### NNP EW SUMMARY ### TS:       9390 EW          0 EWPERSTEP  0.000E+00
### NNP EW SUMMARY ### TS:       9400 EW          0 EWPERSTEP  0.000E+00
### NNP EW SUMMARY ### TS:       9410 EW          0 EWPERSTEP  0.000E+00
### NNP EW SUMMARY ### TS:       9420 EW          0 EWPERSTEP  0.000E+00
### NNP EW SUMMARY ### TS:       9430 EW          0 EWPERSTEP  0.000E+00
### NNP EW SUMMARY ### TS:       9440 EW          0 EWPERSTEP  0.000E+00
### NNP EW SUMMARY ### TS:       9450 EW          0 EWPERSTEP  0.000E+00
### NNP EW SUMMARY ### TS:       9460 EW          0 EWPERSTEP  0.000E+00
### NNP EW SUMMARY ### TS:       9470 EW          0 EWPERSTEP  0.000E+00
### NNP EW SUMMARY ### TS:       9480 EW          0 EWPERSTEP  0.000E+00
### NNP EW SUMMARY ### TS:       9490 EW          0 EWPERSTEP  0.000E+00
### NNP EW SUMMARY ### TS:       9500 EW          0 EWPERSTEP  0.000E+00
### NNP EW SUMMARY ### TS:       9510 EW          0 EWPERSTEP  0.000E+00
### NNP EW SUMMARY ### TS:       9520 EW          0 EWPERSTEP  0.000E+00
### NNP EW SUMMARY ### TS:       9530 EW          0 EWPERSTEP  0.000E+00
### NNP EW SUMMARY ### TS:       9540 EW          0 EWPERSTEP  0.000E+00
### NNP EW SUMMARY ### TS:       9550 EW          0 EWPERSTEP  0.000E+00
### NNP EW SUMMARY ### TS:       9560 EW          0 EWPERSTEP  0.000E+00
### NNP EW SUMMARY ### TS:       9570 EW          0 EWPERSTEP  0.000E+00
### NNP EW SUMMARY ### TS:       9580 EW          0 EWPERSTEP  0.000E+00
### NNP EW SUMMARY ### TS:       9590 EW          0 EWPERSTEP  0.000E+00
### NNP EW SUMMARY ### TS:       9600 EW          0 EWPERSTEP  0.000E+00
### NNP EW SUMMARY ### TS:       9610 EW          0 EWPERSTEP  0.000E+00
### NNP EW SUMMARY ### TS:       9620 EW          0 EWPERSTEP  0.000E+00
### NNP EW SUMMARY ### TS:       9630 EW          0 EWPERSTEP  0.000E+00
### NNP EW SUMMARY ### TS:       9640 EW          0 EWPERSTEP  0.000E+00
### NNP EW SUMMARY ### TS:       9650 EW          0 EWPERSTEP  0.000E+00
### NNP EW SUMMARY ### TS:       9660 EW          0 EWPERSTEP  0.000E+00
### NNP EW SUMMARY ### TS:       9670 EW          0 EWPERSTEP  0.000E+00
### NNP EW SUMMARY ### TS:       9680 EW          0 EWPERSTEP  0.000E+00
### NNP EW SUMMARY ### TS:       9690 EW          0 EWPERSTEP  0.000E+00
### NNP EW SUMMARY ### TS:       9700 EW          0 EWPERSTEP  0.000E+00
### NNP EW SUMMARY ### TS:       9710 EW          0 EWPERSTEP  0.000E+00
### NNP EW SUMMARY ### TS:       9720 EW          0 EWPERSTEP  0.000E+00
### NNP EW SUMMARY ### TS:       9730 EW          0 EWPERSTEP  0.000E+00
### NNP EW SUMMARY ### TS:       9740 EW          0 EWPERSTEP  0.000E+00
### NNP EW SUMMARY ### TS:       9750 EW          0 EWPERSTEP  0.000E+00
### NNP EW SUMMARY ### TS:       9760 EW          0 EWPERSTEP  0.000E+00
### NNP EW SUMMARY ### TS:       9770 EW          0 EWPERSTEP  0.000E+00
### NNP EW SUMMARY ### TS:       9780 EW          0 EWPERSTEP  0.000E+00
### NNP EW SUMMARY ### TS:       9790 EW          0 EWPERSTEP  0.000E+00
### NNP EW SUMMARY ### TS:       9800 EW          0 EWPERSTEP  0.000E+00
### NNP EW SUMMARY ### TS:       9810 EW          0 EWPERSTEP  0.000E+00
### NNP EW SUMMARY ### TS:       9820 EW          0 EWPERSTEP  0.000E+00
### NNP EW SUMMARY ### TS:       9830 EW          0 EWPERSTEP  0.000E+00
### NNP EW SUMMARY ### TS:       9840 EW          0 EWPERSTEP  0.000E+00
### NNP EW SUMMARY ### TS:       9850 EW          0 EWPERSTEP  0.000E+00
### NNP EW SUMMARY ### TS:       9860 EW          0 EWPERSTEP  0.000E+00
### NNP EW SUMMARY ### TS:       9870 EW          0 EWPERSTEP  0.000E+00
### NNP EW SUMMARY ### TS:       9880 EW          0 EWPERSTEP  0.000E+00
### NNP EW SUMMARY ### TS:       9890 EW          0 EWPERSTEP  0.000E+00
### NNP EW SUMMARY ### TS:       9900 EW          0 EWPERSTEP  0.000E+00
### NNP EW SUMMARY ### TS:       9910 EW          0 EWPERSTEP  0.000E+00
### NNP EW SUMMARY ### TS:       9920 EW          0 EWPERSTEP  0.000E+00
### NNP EW SUMMARY ### TS:       9930 EW          0 EWPERSTEP  0.000E+00
### NNP EW SUMMARY ### TS:       9940 EW          0 EWPERSTEP  0.000E+00
### NNP EW SUMMARY ### TS:       9950 EW          0 EWPERSTEP  0.000E+00
### NNP EW SUMMARY ### TS:       9960 EW          0 EWPERSTEP  0.000E+00
### NNP EW SUMMARY ### TS:       9970 EW          0 EWPERSTEP  0.000E+00
### NNP EW SUMMARY ### TS:       9980 EW          0 EWPERSTEP  0.000E+00
### NNP EW SUMMARY ### TS:       9990 EW          0 EWPERSTEP  0.000E+00
### NNP EW SUMMARY ### TS:      10000 EW          0 EWPERSTEP  0.000E+00
Loop time of 1238.98 on 1 procs for 10000 steps with 384 atoms

# Closing commands
write_data final_configuration.data
System init for write_data ...
